
Version,
  8.8;                                    !- Version Identifier

LifeCycleCost:Parameters,
  {9456be68-e4b9-4955-ac8f-87a8d0117d93}, !- Name
  EndOfYear,                              !- Discounting Convention
  ConstantDollar,                         !- Inflation Approach
  0.03,                                   !- Real Discount Rate
  ,                                       !- Nominal Discount Rate
  ,                                       !- Inflation
  ,                                       !- Base Date Month
  2011,                                   !- Base Date Year
  ,                                       !- Service Date Month
  2011,                                   !- Service Date Year
  25,                                     !- Length of Study Period in Years
  ,                                       !- Tax rate
  None;                                   !- Depreciation Method

LifeCycleCost:UsePriceEscalation,
  U.S. Avg  Commercial-Electricity,       !- LCC Price Escalation Name
  Electricity,                            !- Resource
  2011,                                   !- Escalation Start Year
  January,                                !- Escalation Start Month
  0.9838,                                 !- Year Escalation 1
  0.9730,                                 !- Year Escalation 2
  0.9632,                                 !- Year Escalation 3
  0.9611,                                 !- Year Escalation 4
  0.9571,                                 !- Year Escalation 5
  0.9553,                                 !- Year Escalation 6
  0.9539,                                 !- Year Escalation 7
  0.9521,                                 !- Year Escalation 8
  0.9546,                                 !- Year Escalation 9
  0.9550,                                 !- Year Escalation 10
  0.9553,                                 !- Year Escalation 11
  0.9564,                                 !- Year Escalation 12
  0.9575,                                 !- Year Escalation 13
  0.9596,                                 !- Year Escalation 14
  0.9618,                                 !- Year Escalation 15
  0.9614,                                 !- Year Escalation 16
  0.9618,                                 !- Year Escalation 17
  0.9618,                                 !- Year Escalation 18
  0.9593,                                 !- Year Escalation 19
  0.9589,                                 !- Year Escalation 20
  0.9607,                                 !- Year Escalation 21
  0.9625,                                 !- Year Escalation 22
  0.9650,                                 !- Year Escalation 23
  0.9708,                                 !- Year Escalation 24
  0.9751,                                 !- Year Escalation 25
  0.9762,                                 !- Year Escalation 26
  0.9766,                                 !- Year Escalation 27
  0.9766,                                 !- Year Escalation 28
  0.9769,                                 !- Year Escalation 29
  0.9773;                                 !- Year Escalation 30

LifeCycleCost:UsePriceEscalation,
  U.S. Avg  Commercial-Distillate Oil,    !- LCC Price Escalation Name
  FuelOil#1,                              !- Resource
  2011,                                   !- Escalation Start Year
  January,                                !- Escalation Start Month
  0.9714,                                 !- Year Escalation 1
  0.9730,                                 !- Year Escalation 2
  0.9942,                                 !- Year Escalation 3
  1.0164,                                 !- Year Escalation 4
  1.0541,                                 !- Year Escalation 5
  1.0928,                                 !- Year Escalation 6
  1.1267,                                 !- Year Escalation 7
  1.1580,                                 !- Year Escalation 8
  1.1792,                                 !- Year Escalation 9
  1.1967,                                 !- Year Escalation 10
  1.2200,                                 !- Year Escalation 11
  1.2333,                                 !- Year Escalation 12
  1.2566,                                 !- Year Escalation 13
  1.2709,                                 !- Year Escalation 14
  1.2826,                                 !- Year Escalation 15
  1.2985,                                 !- Year Escalation 16
  1.3102,                                 !- Year Escalation 17
  1.3250,                                 !- Year Escalation 18
  1.3261,                                 !- Year Escalation 19
  1.3282,                                 !- Year Escalation 20
  1.3324,                                 !- Year Escalation 21
  1.3356,                                 !- Year Escalation 22
  1.3431,                                 !- Year Escalation 23
  1.3510,                                 !- Year Escalation 24
  1.3568,                                 !- Year Escalation 25
  1.3606,                                 !- Year Escalation 26
  1.3637,                                 !- Year Escalation 27
  1.3674,                                 !- Year Escalation 28
  1.3706,                                 !- Year Escalation 29
  1.3743;                                 !- Year Escalation 30

LifeCycleCost:UsePriceEscalation,
  U.S. Avg  Commercial-Residual Oil,      !- LCC Price Escalation Name
  FuelOil#2,                              !- Resource
  2011,                                   !- Escalation Start Year
  January,                                !- Escalation Start Month
  0.8469,                                 !- Year Escalation 1
  0.8257,                                 !- Year Escalation 2
  0.8681,                                 !- Year Escalation 3
  0.8988,                                 !- Year Escalation 4
  0.9289,                                 !- Year Escalation 5
  0.9604,                                 !- Year Escalation 6
  0.9897,                                 !- Year Escalation 7
  1.0075,                                 !- Year Escalation 8
  1.0314,                                 !- Year Escalation 9
  1.0554,                                 !- Year Escalation 10
  1.0861,                                 !- Year Escalation 11
  1.1278,                                 !- Year Escalation 12
  1.1497,                                 !- Year Escalation 13
  1.1620,                                 !- Year Escalation 14
  1.1743,                                 !- Year Escalation 15
  1.1852,                                 !- Year Escalation 16
  1.1948,                                 !- Year Escalation 17
  1.2037,                                 !- Year Escalation 18
  1.2071,                                 !- Year Escalation 19
  1.2119,                                 !- Year Escalation 20
  1.2139,                                 !- Year Escalation 21
  1.2194,                                 !- Year Escalation 22
  1.2276,                                 !- Year Escalation 23
  1.2365,                                 !- Year Escalation 24
  1.2420,                                 !- Year Escalation 25
  1.2461,                                 !- Year Escalation 26
  1.2509,                                 !- Year Escalation 27
  1.2550,                                 !- Year Escalation 28
  1.2591,                                 !- Year Escalation 29
  1.2638;                                 !- Year Escalation 30

LifeCycleCost:UsePriceEscalation,
  U.S. Avg  Commercial-Natural gas,       !- LCC Price Escalation Name
  NaturalGas,                             !- Resource
  2011,                                   !- Escalation Start Year
  January,                                !- Escalation Start Month
  0.9823,                                 !- Year Escalation 1
  0.9557,                                 !- Year Escalation 2
  0.9279,                                 !- Year Escalation 3
  0.9257,                                 !- Year Escalation 4
  0.9346,                                 !- Year Escalation 5
  0.9412,                                 !- Year Escalation 6
  0.9512,                                 !- Year Escalation 7
  0.9645,                                 !- Year Escalation 8
  0.9856,                                 !- Year Escalation 9
  1.0067,                                 !- Year Escalation 10
  1.0222,                                 !- Year Escalation 11
  1.0410,                                 !- Year Escalation 12
  1.0610,                                 !- Year Escalation 13
  1.0787,                                 !- Year Escalation 14
  1.0942,                                 !- Year Escalation 15
  1.1098,                                 !- Year Escalation 16
  1.1220,                                 !- Year Escalation 17
  1.1308,                                 !- Year Escalation 18
  1.1386,                                 !- Year Escalation 19
  1.1486,                                 !- Year Escalation 20
  1.1619,                                 !- Year Escalation 21
  1.1763,                                 !- Year Escalation 22
  1.1918,                                 !- Year Escalation 23
  1.2118,                                 !- Year Escalation 24
  1.2284,                                 !- Year Escalation 25
  1.2439,                                 !- Year Escalation 26
  1.2605,                                 !- Year Escalation 27
  1.2772,                                 !- Year Escalation 28
  1.2938,                                 !- Year Escalation 29
  1.3115;                                 !- Year Escalation 30

LifeCycleCost:UsePriceEscalation,
  U.S. Avg  Commercial-Coal,              !- LCC Price Escalation Name
  Coal,                                   !- Resource
  2011,                                   !- Escalation Start Year
  January,                                !- Escalation Start Month
  0.9970,                                 !- Year Escalation 1
  1.0089,                                 !- Year Escalation 2
  1.0089,                                 !- Year Escalation 3
  0.9941,                                 !- Year Escalation 4
  0.9941,                                 !- Year Escalation 5
  1.0000,                                 !- Year Escalation 6
  1.0030,                                 !- Year Escalation 7
  1.0059,                                 !- Year Escalation 8
  1.0089,                                 !- Year Escalation 9
  1.0119,                                 !- Year Escalation 10
  1.0148,                                 !- Year Escalation 11
  1.0178,                                 !- Year Escalation 12
  1.0208,                                 !- Year Escalation 13
  1.0267,                                 !- Year Escalation 14
  1.0297,                                 !- Year Escalation 15
  1.0356,                                 !- Year Escalation 16
  1.0415,                                 !- Year Escalation 17
  1.0534,                                 !- Year Escalation 18
  1.0564,                                 !- Year Escalation 19
  1.0593,                                 !- Year Escalation 20
  1.0653,                                 !- Year Escalation 21
  1.0712,                                 !- Year Escalation 22
  1.0742,                                 !- Year Escalation 23
  1.0801,                                 !- Year Escalation 24
  1.0831,                                 !- Year Escalation 25
  1.0831,                                 !- Year Escalation 26
  1.0861,                                 !- Year Escalation 27
  1.0890,                                 !- Year Escalation 28
  1.0920,                                 !- Year Escalation 29
  1.0950;                                 !- Year Escalation 30

Building,
  shapeH,                                 !- Name
  ,                                       !- North Axis {deg}
  ,                                       !- Terrain
  ,                                       !- Loads Convergence Tolerance Value
  ,                                       !- Temperature Convergence Tolerance Value {deltaC}
  ,                                       !- Solar Distribution
  ,                                       !- Maximum Number of Warmup Days
  ;                                       !- Minimum Number of Warmup Days

Shading:Building:Detailed,
  overhang-storey-0-space-1,              !- Name
  ,                                       !- Transmittance Schedule Name
  ,                                       !- Number of Vertices
  -7.2625, -58.6602, 2.5785,              !- X,Y,Z Vertex 1 {m}
  1.7709, -82.1929, 2.5785,               !- X,Y,Z Vertex 2 {m}
  2.8911, -81.7629, 2.5785,               !- X,Y,Z Vertex 3 {m}
  -6.1422, -58.2301, 2.5785;              !- X,Y,Z Vertex 4 {m}

Shading:Building:Detailed,
  overhang-storey-0-space-10,             !- Name
  ,                                       !- Transmittance Schedule Name
  ,                                       !- Number of Vertices
  13.5319, -80.2988, 2.5785,              !- X,Y,Z Vertex 1 {m}
  13.6394, -80.2576, 2.5785,              !- X,Y,Z Vertex 2 {m}
  13.2093, -79.1373, 2.5785,              !- X,Y,Z Vertex 3 {m}
  13.1019, -79.1785, 2.5785;              !- X,Y,Z Vertex 4 {m}

Shading:Building:Detailed,
  overhang-storey-0-space-11,             !- Name
  ,                                       !- Transmittance Schedule Name
  ,                                       !- Number of Vertices
  13.8882, -77.5415, 2.5785,              !- X,Y,Z Vertex 1 {m}
  4.8548, -54.0087, 2.5785,               !- X,Y,Z Vertex 2 {m}
  3.7345, -54.4388, 2.5785,               !- X,Y,Z Vertex 3 {m}
  12.7679, -77.9715, 2.5785;              !- X,Y,Z Vertex 4 {m}

Shading:Building:Detailed,
  overhang-storey-0-space-12,             !- Name
  ,                                       !- Transmittance Schedule Name
  ,                                       !- Number of Vertices
  2.4133, -52.3254, 2.5785,               !- X,Y,Z Vertex 1 {m}
  -6.5745, -55.7755, 2.5785,              !- X,Y,Z Vertex 2 {m}
  -6.1445, -56.8958, 2.5785,              !- X,Y,Z Vertex 3 {m}
  2.8434, -53.4457, 2.5785;               !- X,Y,Z Vertex 4 {m}

Shading:Building:Detailed,
  overhang-storey-0-space-2,              !- Name
  ,                                       !- Transmittance Schedule Name
  ,                                       !- Number of Vertices
  3.7732, -84.0449, 2.5785,               !- X,Y,Z Vertex 1 {m}
  3.8807, -84.0036, 2.5785,               !- X,Y,Z Vertex 2 {m}
  3.4506, -82.8833, 2.5785,               !- X,Y,Z Vertex 3 {m}
  3.3432, -82.9246, 2.5785;               !- X,Y,Z Vertex 4 {m}

Shading:Building:Detailed,
  overhang-storey-0-space-3,              !- Name
  ,                                       !- Transmittance Schedule Name
  ,                                       !- Number of Vertices
  2.7356, -84.3532, 2.5785,               !- X,Y,Z Vertex 1 {m}
  10.8232, -105.4222, 2.5785,             !- X,Y,Z Vertex 2 {m}
  11.9435, -104.9922, 2.5785,             !- X,Y,Z Vertex 3 {m}
  3.8559, -83.9231, 2.5785;               !- X,Y,Z Vertex 4 {m}

Shading:Building:Detailed,
  overhang-storey-0-space-4,              !- Name
  ,                                       !- Transmittance Schedule Name
  ,                                       !- Number of Vertices
  11.9081, -104.9158, 2.5785,             !- X,Y,Z Vertex 1 {m}
  11.8007, -104.9571, 2.5785,             !- X,Y,Z Vertex 2 {m}
  12.2307, -106.0773, 2.5785,             !- X,Y,Z Vertex 3 {m}
  12.3382, -106.0361, 2.5785;             !- X,Y,Z Vertex 4 {m}

Shading:Building:Detailed,
  overhang-storey-0-space-5,              !- Name
  ,                                       !- Transmittance Schedule Name
  ,                                       !- Number of Vertices
  11.5518, -107.6731, 2.5785,             !- X,Y,Z Vertex 1 {m}
  20.5852, -131.2059, 2.5785,             !- X,Y,Z Vertex 2 {m}
  21.7055, -130.7759, 2.5785,             !- X,Y,Z Vertex 3 {m}
  12.6721, -107.2431, 2.5785;             !- X,Y,Z Vertex 4 {m}

Shading:Building:Detailed,
  overhang-storey-0-space-6,              !- Name
  ,                                       !- Transmittance Schedule Name
  ,                                       !- Number of Vertices
  23.0267, -132.8893, 2.5785,             !- X,Y,Z Vertex 1 {m}
  32.0145, -129.4391, 2.5785,             !- X,Y,Z Vertex 2 {m}
  31.5845, -128.3188, 2.5785,             !- X,Y,Z Vertex 3 {m}
  22.5966, -131.769, 2.5785;              !- X,Y,Z Vertex 4 {m}

Shading:Building:Detailed,
  overhang-storey-0-space-7,              !- Name
  ,                                       !- Transmittance Schedule Name
  ,                                       !- Number of Vertices
  32.7025, -126.5545, 2.5785,             !- X,Y,Z Vertex 1 {m}
  23.6692, -103.0217, 2.5785,             !- X,Y,Z Vertex 2 {m}
  22.5489, -103.4518, 2.5785,             !- X,Y,Z Vertex 3 {m}
  31.5822, -126.9845, 2.5785;             !- X,Y,Z Vertex 4 {m}

Shading:Building:Detailed,
  overhang-storey-0-space-8,              !- Name
  ,                                       !- Transmittance Schedule Name
  ,                                       !- Number of Vertices
  21.6668, -101.1698, 2.5785,             !- X,Y,Z Vertex 1 {m}
  21.5593, -101.211, 2.5785,              !- X,Y,Z Vertex 2 {m}
  21.9894, -102.3313, 2.5785,             !- X,Y,Z Vertex 3 {m}
  22.0968, -102.2901, 2.5785;             !- X,Y,Z Vertex 4 {m}

Shading:Building:Detailed,
  overhang-storey-0-space-9,              !- Name
  ,                                       !- Transmittance Schedule Name
  ,                                       !- Number of Vertices
  22.7044, -100.8615, 2.5785,             !- X,Y,Z Vertex 1 {m}
  14.6168, -79.7924, 2.5785,              !- X,Y,Z Vertex 2 {m}
  13.4965, -80.2225, 2.5785,              !- X,Y,Z Vertex 3 {m}
  21.5841, -101.2915, 2.5785;             !- X,Y,Z Vertex 4 {m}

Shading:Building:Detailed,
  overhang-storey-1-space-1,              !- Name
  ,                                       !- Transmittance Schedule Name
  ,                                       !- Number of Vertices
  -7.2625, -58.6602, 8.2785,              !- X,Y,Z Vertex 1 {m}
  1.7709, -82.1929, 8.2785,               !- X,Y,Z Vertex 2 {m}
  2.8911, -81.7629, 8.2785,               !- X,Y,Z Vertex 3 {m}
  -6.1422, -58.2301, 8.2785;              !- X,Y,Z Vertex 4 {m}

Shading:Building:Detailed,
  overhang-storey-1-space-10,             !- Name
  ,                                       !- Transmittance Schedule Name
  ,                                       !- Number of Vertices
  13.5319, -80.2988, 8.2785,              !- X,Y,Z Vertex 1 {m}
  13.6394, -80.2576, 8.2785,              !- X,Y,Z Vertex 2 {m}
  13.2093, -79.1373, 8.2785,              !- X,Y,Z Vertex 3 {m}
  13.1019, -79.1785, 8.2785;              !- X,Y,Z Vertex 4 {m}

Shading:Building:Detailed,
  overhang-storey-1-space-11,             !- Name
  ,                                       !- Transmittance Schedule Name
  ,                                       !- Number of Vertices
  13.8882, -77.5415, 8.2785,              !- X,Y,Z Vertex 1 {m}
  4.8548, -54.0087, 8.2785,               !- X,Y,Z Vertex 2 {m}
  3.7345, -54.4388, 8.2785,               !- X,Y,Z Vertex 3 {m}
  12.7679, -77.9715, 8.2785;              !- X,Y,Z Vertex 4 {m}

Shading:Building:Detailed,
  overhang-storey-1-space-12,             !- Name
  ,                                       !- Transmittance Schedule Name
  ,                                       !- Number of Vertices
  2.4133, -52.3254, 8.2785,               !- X,Y,Z Vertex 1 {m}
  -6.5745, -55.7755, 8.2785,              !- X,Y,Z Vertex 2 {m}
  -6.1445, -56.8958, 8.2785,              !- X,Y,Z Vertex 3 {m}
  2.8434, -53.4457, 8.2785;               !- X,Y,Z Vertex 4 {m}

Shading:Building:Detailed,
  overhang-storey-1-space-2,              !- Name
  ,                                       !- Transmittance Schedule Name
  ,                                       !- Number of Vertices
  3.7732, -84.0449, 8.2785,               !- X,Y,Z Vertex 1 {m}
  3.8807, -84.0036, 8.2785,               !- X,Y,Z Vertex 2 {m}
  3.4506, -82.8833, 8.2785,               !- X,Y,Z Vertex 3 {m}
  3.3432, -82.9246, 8.2785;               !- X,Y,Z Vertex 4 {m}

Shading:Building:Detailed,
  overhang-storey-1-space-3,              !- Name
  ,                                       !- Transmittance Schedule Name
  ,                                       !- Number of Vertices
  2.7356, -84.3532, 8.2785,               !- X,Y,Z Vertex 1 {m}
  10.8232, -105.4222, 8.2785,             !- X,Y,Z Vertex 2 {m}
  11.9435, -104.9922, 8.2785,             !- X,Y,Z Vertex 3 {m}
  3.8559, -83.9231, 8.2785;               !- X,Y,Z Vertex 4 {m}

Shading:Building:Detailed,
  overhang-storey-1-space-4,              !- Name
  ,                                       !- Transmittance Schedule Name
  ,                                       !- Number of Vertices
  11.9081, -104.9158, 8.2785,             !- X,Y,Z Vertex 1 {m}
  11.8007, -104.9571, 8.2785,             !- X,Y,Z Vertex 2 {m}
  12.2307, -106.0773, 8.2785,             !- X,Y,Z Vertex 3 {m}
  12.3382, -106.0361, 8.2785;             !- X,Y,Z Vertex 4 {m}

Shading:Building:Detailed,
  overhang-storey-1-space-5,              !- Name
  ,                                       !- Transmittance Schedule Name
  ,                                       !- Number of Vertices
  11.5518, -107.6731, 8.2785,             !- X,Y,Z Vertex 1 {m}
  20.5852, -131.2059, 8.2785,             !- X,Y,Z Vertex 2 {m}
  21.7055, -130.7759, 8.2785,             !- X,Y,Z Vertex 3 {m}
  12.6721, -107.2431, 8.2785;             !- X,Y,Z Vertex 4 {m}

Shading:Building:Detailed,
  overhang-storey-1-space-6,              !- Name
  ,                                       !- Transmittance Schedule Name
  ,                                       !- Number of Vertices
  23.0267, -132.8893, 8.2785,             !- X,Y,Z Vertex 1 {m}
  32.0145, -129.4391, 8.2785,             !- X,Y,Z Vertex 2 {m}
  31.5845, -128.3188, 8.2785,             !- X,Y,Z Vertex 3 {m}
  22.5966, -131.769, 8.2785;              !- X,Y,Z Vertex 4 {m}

Shading:Building:Detailed,
  overhang-storey-1-space-7,              !- Name
  ,                                       !- Transmittance Schedule Name
  ,                                       !- Number of Vertices
  32.7025, -126.5545, 8.2785,             !- X,Y,Z Vertex 1 {m}
  23.6692, -103.0217, 8.2785,             !- X,Y,Z Vertex 2 {m}
  22.5489, -103.4518, 8.2785,             !- X,Y,Z Vertex 3 {m}
  31.5822, -126.9845, 8.2785;             !- X,Y,Z Vertex 4 {m}

Shading:Building:Detailed,
  overhang-storey-1-space-8,              !- Name
  ,                                       !- Transmittance Schedule Name
  ,                                       !- Number of Vertices
  21.6668, -101.1698, 8.2785,             !- X,Y,Z Vertex 1 {m}
  21.5593, -101.211, 8.2785,              !- X,Y,Z Vertex 2 {m}
  21.9894, -102.3313, 8.2785,             !- X,Y,Z Vertex 3 {m}
  22.0968, -102.2901, 8.2785;             !- X,Y,Z Vertex 4 {m}

Shading:Building:Detailed,
  overhang-storey-1-space-9,              !- Name
  ,                                       !- Transmittance Schedule Name
  ,                                       !- Number of Vertices
  22.7044, -100.8615, 8.2785,             !- X,Y,Z Vertex 1 {m}
  14.6168, -79.7924, 8.2785,              !- X,Y,Z Vertex 2 {m}
  13.4965, -80.2225, 8.2785,              !- X,Y,Z Vertex 3 {m}
  21.5841, -101.2915, 8.2785;             !- X,Y,Z Vertex 4 {m}

Shading:Building:Detailed,
  overhang-storey-2-space-1,              !- Name
  ,                                       !- Transmittance Schedule Name
  ,                                       !- Number of Vertices
  -7.2625, -58.6602, 13.9785,             !- X,Y,Z Vertex 1 {m}
  1.7709, -82.1929, 13.9785,              !- X,Y,Z Vertex 2 {m}
  2.8911, -81.7629, 13.9785,              !- X,Y,Z Vertex 3 {m}
  -6.1422, -58.2301, 13.9785;             !- X,Y,Z Vertex 4 {m}

Shading:Building:Detailed,
  overhang-storey-2-space-10,             !- Name
  ,                                       !- Transmittance Schedule Name
  ,                                       !- Number of Vertices
  13.5319, -80.2988, 13.9785,             !- X,Y,Z Vertex 1 {m}
  13.6394, -80.2576, 13.9785,             !- X,Y,Z Vertex 2 {m}
  13.2093, -79.1373, 13.9785,             !- X,Y,Z Vertex 3 {m}
  13.1019, -79.1785, 13.9785;             !- X,Y,Z Vertex 4 {m}

Shading:Building:Detailed,
  overhang-storey-2-space-11,             !- Name
  ,                                       !- Transmittance Schedule Name
  ,                                       !- Number of Vertices
  13.8882, -77.5415, 13.9785,             !- X,Y,Z Vertex 1 {m}
  4.8548, -54.0087, 13.9785,              !- X,Y,Z Vertex 2 {m}
  3.7345, -54.4388, 13.9785,              !- X,Y,Z Vertex 3 {m}
  12.7679, -77.9715, 13.9785;             !- X,Y,Z Vertex 4 {m}

Shading:Building:Detailed,
  overhang-storey-2-space-12,             !- Name
  ,                                       !- Transmittance Schedule Name
  ,                                       !- Number of Vertices
  2.4133, -52.3254, 13.9785,              !- X,Y,Z Vertex 1 {m}
  -6.5745, -55.7755, 13.9785,             !- X,Y,Z Vertex 2 {m}
  -6.1445, -56.8958, 13.9785,             !- X,Y,Z Vertex 3 {m}
  2.8434, -53.4457, 13.9785;              !- X,Y,Z Vertex 4 {m}

Shading:Building:Detailed,
  overhang-storey-2-space-2,              !- Name
  ,                                       !- Transmittance Schedule Name
  ,                                       !- Number of Vertices
  3.7732, -84.0449, 13.9785,              !- X,Y,Z Vertex 1 {m}
  3.8807, -84.0036, 13.9785,              !- X,Y,Z Vertex 2 {m}
  3.4506, -82.8833, 13.9785,              !- X,Y,Z Vertex 3 {m}
  3.3432, -82.9246, 13.9785;              !- X,Y,Z Vertex 4 {m}

Shading:Building:Detailed,
  overhang-storey-2-space-3,              !- Name
  ,                                       !- Transmittance Schedule Name
  ,                                       !- Number of Vertices
  2.7356, -84.3532, 13.9785,              !- X,Y,Z Vertex 1 {m}
  10.8232, -105.4222, 13.9785,            !- X,Y,Z Vertex 2 {m}
  11.9435, -104.9922, 13.9785,            !- X,Y,Z Vertex 3 {m}
  3.8559, -83.9231, 13.9785;              !- X,Y,Z Vertex 4 {m}

Shading:Building:Detailed,
  overhang-storey-2-space-4,              !- Name
  ,                                       !- Transmittance Schedule Name
  ,                                       !- Number of Vertices
  11.9081, -104.9158, 13.9785,            !- X,Y,Z Vertex 1 {m}
  11.8007, -104.9571, 13.9785,            !- X,Y,Z Vertex 2 {m}
  12.2307, -106.0773, 13.9785,            !- X,Y,Z Vertex 3 {m}
  12.3382, -106.0361, 13.9785;            !- X,Y,Z Vertex 4 {m}

Shading:Building:Detailed,
  overhang-storey-2-space-5,              !- Name
  ,                                       !- Transmittance Schedule Name
  ,                                       !- Number of Vertices
  11.5518, -107.6731, 13.9785,            !- X,Y,Z Vertex 1 {m}
  20.5852, -131.2059, 13.9785,            !- X,Y,Z Vertex 2 {m}
  21.7055, -130.7759, 13.9785,            !- X,Y,Z Vertex 3 {m}
  12.6721, -107.2431, 13.9785;            !- X,Y,Z Vertex 4 {m}

Shading:Building:Detailed,
  overhang-storey-2-space-6,              !- Name
  ,                                       !- Transmittance Schedule Name
  ,                                       !- Number of Vertices
  23.0267, -132.8893, 13.9785,            !- X,Y,Z Vertex 1 {m}
  32.0145, -129.4391, 13.9785,            !- X,Y,Z Vertex 2 {m}
  31.5845, -128.3188, 13.9785,            !- X,Y,Z Vertex 3 {m}
  22.5966, -131.769, 13.9785;             !- X,Y,Z Vertex 4 {m}

Shading:Building:Detailed,
  overhang-storey-2-space-7,              !- Name
  ,                                       !- Transmittance Schedule Name
  ,                                       !- Number of Vertices
  32.7025, -126.5545, 13.9785,            !- X,Y,Z Vertex 1 {m}
  23.6692, -103.0217, 13.9785,            !- X,Y,Z Vertex 2 {m}
  22.5489, -103.4518, 13.9785,            !- X,Y,Z Vertex 3 {m}
  31.5822, -126.9845, 13.9785;            !- X,Y,Z Vertex 4 {m}

Shading:Building:Detailed,
  overhang-storey-2-space-8,              !- Name
  ,                                       !- Transmittance Schedule Name
  ,                                       !- Number of Vertices
  21.6668, -101.1698, 13.9785,            !- X,Y,Z Vertex 1 {m}
  21.5593, -101.211, 13.9785,             !- X,Y,Z Vertex 2 {m}
  21.9894, -102.3313, 13.9785,            !- X,Y,Z Vertex 3 {m}
  22.0968, -102.2901, 13.9785;            !- X,Y,Z Vertex 4 {m}

Shading:Building:Detailed,
  overhang-storey-2-space-9,              !- Name
  ,                                       !- Transmittance Schedule Name
  ,                                       !- Number of Vertices
  22.7044, -100.8615, 13.9785,            !- X,Y,Z Vertex 1 {m}
  14.6168, -79.7924, 13.9785,             !- X,Y,Z Vertex 2 {m}
  13.4965, -80.2225, 13.9785,             !- X,Y,Z Vertex 3 {m}
  21.5841, -101.2915, 13.9785;            !- X,Y,Z Vertex 4 {m}

Shading:Building:Detailed,
  overhang-storey-3-space-1,              !- Name
  ,                                       !- Transmittance Schedule Name
  ,                                       !- Number of Vertices
  -7.2625, -58.6602, 19.6785,             !- X,Y,Z Vertex 1 {m}
  1.7709, -82.1929, 19.6785,              !- X,Y,Z Vertex 2 {m}
  2.8911, -81.7629, 19.6785,              !- X,Y,Z Vertex 3 {m}
  -6.1422, -58.2301, 19.6785;             !- X,Y,Z Vertex 4 {m}

Shading:Building:Detailed,