
Version,
  8.8;                                    !- Version Identifier

LifeCycleCost:Parameters,
  {56a85226-c908-467c-b1c0-670018aea928}, !- Name
  EndOfYear,                              !- Discounting Convention
  ConstantDollar,                         !- Inflation Approach
  0.03,                                   !- Real Discount Rate
  ,                                       !- Nominal Discount Rate
  ,                                       !- Inflation
  ,                                       !- Base Date Month
  2011,                                   !- Base Date Year
  ,                                       !- Service Date Month
  2011,                                   !- Service Date Year
  25,                                     !- Length of Study Period in Years
  ,                                       !- Tax rate
  None;                                   !- Depreciation Method

LifeCycleCost:UsePriceEscalation,
  U.S. Avg  Commercial-Electricity,       !- LCC Price Escalation Name
  Electricity,                            !- Resource
  2011,                                   !- Escalation Start Year
  January,                                !- Escalation Start Month
  0.9838,                                 !- Year Escalation 1
  0.9730,                                 !- Year Escalation 2
  0.9632,                                 !- Year Escalation 3
  0.9611,                                 !- Year Escalation 4
  0.9571,                                 !- Year Escalation 5
  0.9553,                                 !- Year Escalation 6
  0.9539,                                 !- Year Escalation 7
  0.9521,                                 !- Year Escalation 8
  0.9546,                                 !- Year Escalation 9
  0.9550,                                 !- Year Escalation 10
  0.9553,                                 !- Year Escalation 11
  0.9564,                                 !- Year Escalation 12
  0.9575,                                 !- Year Escalation 13
  0.9596,                                 !- Year Escalation 14
  0.9618,                                 !- Year Escalation 15
  0.9614,                                 !- Year Escalation 16
  0.9618,                                 !- Year Escalation 17
  0.9618,                                 !- Year Escalation 18
  0.9593,                                 !- Year Escalation 19
  0.9589,                                 !- Year Escalation 20
  0.9607,                                 !- Year Escalation 21
  0.9625,                                 !- Year Escalation 22
  0.9650,                                 !- Year Escalation 23
  0.9708,                                 !- Year Escalation 24
  0.9751,                                 !- Year Escalation 25
  0.9762,                                 !- Year Escalation 26
  0.9766,                                 !- Year Escalation 27
  0.9766,                                 !- Year Escalation 28
  0.9769,                                 !- Year Escalation 29
  0.9773;                                 !- Year Escalation 30

LifeCycleCost:UsePriceEscalation,
  U.S. Avg  Commercial-Distillate Oil,    !- LCC Price Escalation Name
  FuelOil#1,                              !- Resource
  2011,                                   !- Escalation Start Year
  January,                                !- Escalation Start Month
  0.9714,                                 !- Year Escalation 1
  0.9730,                                 !- Year Escalation 2
  0.9942,                                 !- Year Escalation 3
  1.0164,                                 !- Year Escalation 4
  1.0541,                                 !- Year Escalation 5
  1.0928,                                 !- Year Escalation 6
  1.1267,                                 !- Year Escalation 7
  1.1580,                                 !- Year Escalation 8
  1.1792,                                 !- Year Escalation 9
  1.1967,                                 !- Year Escalation 10
  1.2200,                                 !- Year Escalation 11
  1.2333,                                 !- Year Escalation 12
  1.2566,                                 !- Year Escalation 13
  1.2709,                                 !- Year Escalation 14
  1.2826,                                 !- Year Escalation 15
  1.2985,                                 !- Year Escalation 16
  1.3102,                                 !- Year Escalation 17
  1.3250,                                 !- Year Escalation 18
  1.3261,                                 !- Year Escalation 19
  1.3282,                                 !- Year Escalation 20
  1.3324,                                 !- Year Escalation 21
  1.3356,                                 !- Year Escalation 22
  1.3431,                                 !- Year Escalation 23
  1.3510,                                 !- Year Escalation 24
  1.3568,                                 !- Year Escalation 25
  1.3606,                                 !- Year Escalation 26
  1.3637,                                 !- Year Escalation 27
  1.3674,                                 !- Year Escalation 28
  1.3706,                                 !- Year Escalation 29
  1.3743;                                 !- Year Escalation 30

LifeCycleCost:UsePriceEscalation,
  U.S. Avg  Commercial-Residual Oil,      !- LCC Price Escalation Name
  FuelOil#2,                              !- Resource
  2011,                                   !- Escalation Start Year
  January,                                !- Escalation Start Month
  0.8469,                                 !- Year Escalation 1
  0.8257,                                 !- Year Escalation 2
  0.8681,                                 !- Year Escalation 3
  0.8988,                                 !- Year Escalation 4
  0.9289,                                 !- Year Escalation 5
  0.9604,                                 !- Year Escalation 6
  0.9897,                                 !- Year Escalation 7
  1.0075,                                 !- Year Escalation 8
  1.0314,                                 !- Year Escalation 9
  1.0554,                                 !- Year Escalation 10
  1.0861,                                 !- Year Escalation 11
  1.1278,                                 !- Year Escalation 12
  1.1497,                                 !- Year Escalation 13
  1.1620,                                 !- Year Escalation 14
  1.1743,                                 !- Year Escalation 15
  1.1852,                                 !- Year Escalation 16
  1.1948,                                 !- Year Escalation 17
  1.2037,                                 !- Year Escalation 18
  1.2071,                                 !- Year Escalation 19
  1.2119,                                 !- Year Escalation 20
  1.2139,                                 !- Year Escalation 21
  1.2194,                                 !- Year Escalation 22
  1.2276,                                 !- Year Escalation 23
  1.2365,                                 !- Year Escalation 24
  1.2420,                                 !- Year Escalation 25
  1.2461,                                 !- Year Escalation 26
  1.2509,                                 !- Year Escalation 27
  1.2550,                                 !- Year Escalation 28
  1.2591,                                 !- Year Escalation 29
  1.2638;                                 !- Year Escalation 30

LifeCycleCost:UsePriceEscalation,
  U.S. Avg  Commercial-Natural gas,       !- LCC Price Escalation Name
  NaturalGas,                             !- Resource
  2011,                                   !- Escalation Start Year
  January,                                !- Escalation Start Month
  0.9823,                                 !- Year Escalation 1
  0.9557,                                 !- Year Escalation 2
  0.9279,                                 !- Year Escalation 3
  0.9257,                                 !- Year Escalation 4
  0.9346,                                 !- Year Escalation 5
  0.9412,                                 !- Year Escalation 6
  0.9512,                                 !- Year Escalation 7
  0.9645,                                 !- Year Escalation 8
  0.9856,                                 !- Year Escalation 9
  1.0067,                                 !- Year Escalation 10
  1.0222,                                 !- Year Escalation 11
  1.0410,                                 !- Year Escalation 12
  1.0610,                                 !- Year Escalation 13
  1.0787,                                 !- Year Escalation 14
  1.0942,                                 !- Year Escalation 15
  1.1098,                                 !- Year Escalation 16
  1.1220,                                 !- Year Escalation 17
  1.1308,                                 !- Year Escalation 18
  1.1386,                                 !- Year Escalation 19
  1.1486,                                 !- Year Escalation 20
  1.1619,                                 !- Year Escalation 21
  1.1763,                                 !- Year Escalation 22
  1.1918,                                 !- Year Escalation 23
  1.2118,                                 !- Year Escalation 24
  1.2284,                                 !- Year Escalation 25
  1.2439,                                 !- Year Escalation 26
  1.2605,                                 !- Year Escalation 27
  1.2772,                                 !- Year Escalation 28
  1.2938,                                 !- Year Escalation 29
  1.3115;                                 !- Year Escalation 30

LifeCycleCost:UsePriceEscalation,
  U.S. Avg  Commercial-Coal,              !- LCC Price Escalation Name
  Coal,                                   !- Resource
  2011,                                   !- Escalation Start Year
  January,                                !- Escalation Start Month
  0.9970,                                 !- Year Escalation 1
  1.0089,                                 !- Year Escalation 2
  1.0089,                                 !- Year Escalation 3
  0.9941,                                 !- Year Escalation 4
  0.9941,                                 !- Year Escalation 5
  1.0000,                                 !- Year Escalation 6
  1.0030,                                 !- Year Escalation 7
  1.0059,                                 !- Year Escalation 8
  1.0089,                                 !- Year Escalation 9
  1.0119,                                 !- Year Escalation 10
  1.0148,                                 !- Year Escalation 11
  1.0178,                                 !- Year Escalation 12
  1.0208,                                 !- Year Escalation 13
  1.0267,                                 !- Year Escalation 14
  1.0297,                                 !- Year Escalation 15
  1.0356,                                 !- Year Escalation 16
  1.0415,                                 !- Year Escalation 17
  1.0534,                                 !- Year Escalation 18
  1.0564,                                 !- Year Escalation 19
  1.0593,                                 !- Year Escalation 20
  1.0653,                                 !- Year Escalation 21
  1.0712,                                 !- Year Escalation 22
  1.0742,                                 !- Year Escalation 23
  1.0801,                                 !- Year Escalation 24
  1.0831,                                 !- Year Escalation 25
  1.0831,                                 !- Year Escalation 26
  1.0861,                                 !- Year Escalation 27
  1.0890,                                 !- Year Escalation 28
  1.0920,                                 !- Year Escalation 29
  1.0950;                                 !- Year Escalation 30

Building,
  shapeH,                                 !- Name
  ,                                       !- North Axis {deg}
  ,                                       !- Terrain
  ,                                       !- Loads Convergence Tolerance Value
  ,                                       !- Temperature Convergence Tolerance Value {deltaC}
  ,                                       !- Solar Distribution
  ,                                       !- Maximum Number of Warmup Days
  ;                                       !- Minimum Number of Warmup Days

Shading:Building:Detailed,
  overhang-storey-0-space-1,              !- Name
  ,                                       !- Transmittance Schedule Name
  ,                                       !- Number of Vertices
  3.0922, -63.8432, 2.595,                !- X,Y,Z Vertex 1 {m}
  6.9698, -56.2331, 2.595,                !- X,Y,Z Vertex 2 {m}
  6.1679, -55.8246, 2.595,                !- X,Y,Z Vertex 3 {m}
  2.2903, -63.4346, 2.595;                !- X,Y,Z Vertex 4 {m}

Shading:Building:Detailed,
  overhang-storey-0-space-10,             !- Name
  ,                                       !- Transmittance Schedule Name
  ,                                       !- Number of Vertices
  -4.8286, -47.4388, 2.595,               !- X,Y,Z Vertex 1 {m}
  -6.7799, -46.4445, 2.595,               !- X,Y,Z Vertex 2 {m}
  -7.1885, -47.2464, 2.595,               !- X,Y,Z Vertex 3 {m}
  -5.2372, -48.2407, 2.595;               !- X,Y,Z Vertex 4 {m}

Shading:Building:Detailed,
  overhang-storey-0-space-11,             !- Name
  ,                                       !- Transmittance Schedule Name
  ,                                       !- Number of Vertices
  -9.0683, -48.0613, 2.595,               !- X,Y,Z Vertex 1 {m}
  -12.9459, -55.6714, 2.595,              !- X,Y,Z Vertex 2 {m}
  -12.144, -56.08, 2.595,                 !- X,Y,Z Vertex 3 {m}
  -8.2664, -48.4699, 2.595;               !- X,Y,Z Vertex 4 {m}

Shading:Building:Detailed,
  overhang-storey-0-space-12,             !- Name
  ,                                       !- Transmittance Schedule Name
  ,                                       !- Number of Vertices
  -11.321, -59.2821, 2.595,               !- X,Y,Z Vertex 1 {m}
  -0.784, -64.651, 2.595,                 !- X,Y,Z Vertex 2 {m}
  -0.3754, -63.8491, 2.595,               !- X,Y,Z Vertex 3 {m}
  -10.9124, -58.4802, 2.595;              !- X,Y,Z Vertex 4 {m}

Shading:Building:Detailed,
  overhang-storey-0-space-2,              !- Name
  ,                                       !- Transmittance Schedule Name
  ,                                       !- Number of Vertices
  6.9327, -53.4314, 2.595,                !- X,Y,Z Vertex 1 {m}
  4.9814, -52.4372, 2.595,                !- X,Y,Z Vertex 2 {m}
  4.5728, -53.2391, 2.595,                !- X,Y,Z Vertex 3 {m}
  6.5241, -54.2333, 2.595;                !- X,Y,Z Vertex 4 {m}

Shading:Building:Detailed,
  overhang-storey-0-space-3,              !- Name
  ,                                       !- Transmittance Schedule Name
  ,                                       !- Number of Vertices
  5.1242, -53.2473, 2.595,                !- X,Y,Z Vertex 1 {m}
  5.7207, -52.0765, 2.595,                !- X,Y,Z Vertex 2 {m}
  4.9188, -51.6679, 2.595,                !- X,Y,Z Vertex 3 {m}
  4.3222, -52.8387, 2.595;                !- X,Y,Z Vertex 4 {m}

Shading:Building:Detailed,
  overhang-storey-0-space-4,              !- Name
  ,                                       !- Transmittance Schedule Name
  ,                                       !- Number of Vertices
  4.9814, -52.4372, 2.595,                !- X,Y,Z Vertex 1 {m}
  6.9327, -53.4314, 2.595,                !- X,Y,Z Vertex 2 {m}
  7.3413, -52.6295, 2.595,                !- X,Y,Z Vertex 3 {m}
  5.39, -51.6353, 2.595;                  !- X,Y,Z Vertex 4 {m}

Shading:Building:Detailed,
  overhang-storey-0-space-5,              !- Name
  ,                                       !- Transmittance Schedule Name
  ,                                       !- Number of Vertices
  9.2211, -51.8146, 2.595,                !- X,Y,Z Vertex 1 {m}
  13.0986, -44.2046, 2.595,               !- X,Y,Z Vertex 2 {m}
  12.2967, -43.796, 2.595,                !- X,Y,Z Vertex 3 {m}
  8.4192, -51.4061, 2.595;                !- X,Y,Z Vertex 4 {m}

Shading:Building:Detailed,
  overhang-storey-0-space-6,              !- Name
  ,                                       !- Transmittance Schedule Name
  ,                                       !- Number of Vertices
  11.4738, -40.5938, 2.595,               !- X,Y,Z Vertex 1 {m}
  0.9367, -35.225, 2.595,                 !- X,Y,Z Vertex 2 {m}
  0.5281, -36.0269, 2.595,                !- X,Y,Z Vertex 3 {m}
  11.0652, -41.3957, 2.595;               !- X,Y,Z Vertex 4 {m}

Shading:Building:Detailed,
  overhang-storey-0-space-7,              !- Name
  ,                                       !- Transmittance Schedule Name
  ,                                       !- Number of Vertices
  -2.9395, -36.0327, 2.595,               !- X,Y,Z Vertex 1 {m}
  -6.817, -43.6428, 2.595,                !- X,Y,Z Vertex 2 {m}
  -6.0151, -44.0514, 2.595,               !- X,Y,Z Vertex 3 {m}
  -2.1376, -36.4413, 2.595;               !- X,Y,Z Vertex 4 {m}

Shading:Building:Detailed,
  overhang-storey-0-space-8,              !- Name
  ,                                       !- Transmittance Schedule Name
  ,                                       !- Number of Vertices
  -6.7799, -46.4445, 2.595,               !- X,Y,Z Vertex 1 {m}
  -4.8286, -47.4388, 2.595,               !- X,Y,Z Vertex 2 {m}
  -4.42, -46.6369, 2.595,                 !- X,Y,Z Vertex 3 {m}
  -6.3713, -45.6426, 2.595;               !- X,Y,Z Vertex 4 {m}

Shading:Building:Detailed,
  overhang-storey-0-space-9,              !- Name
  ,                                       !- Transmittance Schedule Name
  ,                                       !- Number of Vertices
  -4.9714, -46.6286, 2.595,               !- X,Y,Z Vertex 1 {m}
  -5.5679, -47.7994, 2.595,               !- X,Y,Z Vertex 2 {m}
  -4.766, -48.208, 2.595,                 !- X,Y,Z Vertex 3 {m}
  -4.1695, -47.0372, 2.595;               !- X,Y,Z Vertex 4 {m}

Shading:Building:Detailed,
  overhang-storey-1-space-1,              !- Name
  ,                                       !- Transmittance Schedule Name
  ,                                       !- Number of Vertices
  3.0922, -63.8432, 8.595,                !- X,Y,Z Vertex 1 {m}
  6.9698, -56.2331, 8.595,                !- X,Y,Z Vertex 2 {m}
  6.1679, -55.8246, 8.595,                !- X,Y,Z Vertex 3 {m}
  2.2903, -63.4346, 8.595;                !- X,Y,Z Vertex 4 {m}

Shading:Building:Detailed,
  overhang-storey-1-space-10,             !- Name
  ,                                       !- Transmittance Schedule Name
  ,                                       !- Number of Vertices
  -4.8286, -47.4388, 8.595,               !- X,Y,Z Vertex 1 {m}
  -6.7799, -46.4445, 8.595,               !- X,Y,Z Vertex 2 {m}
  -7.1885, -47.2464, 8.595,               !- X,Y,Z Vertex 3 {m}
  -5.2372, -48.2407, 8.595;               !- X,Y,Z Vertex 4 {m}

Shading:Building:Detailed,
  overhang-storey-1-space-11,             !- Name
  ,                                       !- Transmittance Schedule Name
  ,                                       !- Number of Vertices
  -9.0683, -48.0613, 8.595,               !- X,Y,Z Vertex 1 {m}
  -12.9459, -55.6714, 8.595,              !- X,Y,Z Vertex 2 {m}
  -12.144, -56.08, 8.595,                 !- X,Y,Z Vertex 3 {m}
  -8.2664, -48.4699, 8.595;               !- X,Y,Z Vertex 4 {m}

Shading:Building:Detailed,
  overhang-storey-1-space-12,             !- Name
  ,                                       !- Transmittance Schedule Name
  ,                                       !- Number of Vertices
  -11.321, -59.2821, 8.595,               !- X,Y,Z Vertex 1 {m}
  -0.784, -64.651, 8.595,                 !- X,Y,Z Vertex 2 {m}
  -0.3754, -63.8491, 8.595,               !- X,Y,Z Vertex 3 {m}
  -10.9124, -58.4802, 8.595;              !- X,Y,Z Vertex 4 {m}

Shading:Building:Detailed,
  overhang-storey-1-space-2,              !- Name
  ,                                       !- Transmittance Schedule Name
  ,                                       !- Number of Vertices
  6.9327, -53.4314, 8.595,                !- X,Y,Z Vertex 1 {m}
  4.9814, -52.4372, 8.595,                !- X,Y,Z Vertex 2 {m}
  4.5728, -53.2391, 8.595,                !- X,Y,Z Vertex 3 {m}
  6.5241, -54.2333, 8.595;                !- X,Y,Z Vertex 4 {m}

Shading:Building:Detailed,
  overhang-storey-1-space-3,              !- Name
  ,                                       !- Transmittance Schedule Name
  ,                                       !- Number of Vertices
  5.1242, -53.2473, 8.595,                !- X,Y,Z Vertex 1 {m}
  5.7207, -52.0765, 8.595,                !- X,Y,Z Vertex 2 {m}
  4.9188, -51.6679, 8.595,                !- X,Y,Z Vertex 3 {m}
  4.3222, -52.8387, 8.595;                !- X,Y,Z Vertex 4 {m}

Shading:Building:Detailed,
  overhang-storey-1-space-4,              !- Name
  ,                                       !- Transmittance Schedule Name
  ,                                       !- Number of Vertices
  4.9814, -52.4372, 8.595,                !- X,Y,Z Vertex 1 {m}
  6.9327, -53.4314, 8.595,                !- X,Y,Z Vertex 2 {m}
  7.3413, -52.6295, 8.595,                !- X,Y,Z Vertex 3 {m}
  5.39, -51.6353, 8.595;                  !- X,Y,Z Vertex 4 {m}

Shading:Building:Detailed,
  overhang-storey-1-space-5,              !- Name
  ,                                       !- Transmittance Schedule Name
  ,                                       !- Number of Vertices
  9.2211, -51.8146, 8.595,                !- X,Y,Z Vertex 1 {m}
  13.0986, -44.2046, 8.595,               !- X,Y,Z Vertex 2 {m}
  12.2967, -43.796, 8.595,                !- X,Y,Z Vertex 3 {m}
  8.4192, -51.4061, 8.595;                !- X,Y,Z Vertex 4 {m}

Shading:Building:Detailed,
  overhang-storey-1-space-6,              !- Name
  ,                                       !- Transmittance Schedule Name
  ,                                       !- Number of Vertices
  11.4738, -40.5938, 8.595,               !- X,Y,Z Vertex 1 {m}
  0.9367, -35.225, 8.595,                 !- X,Y,Z Vertex 2 {m}
  0.5281, -36.0269, 8.595,                !- X,Y,Z Vertex 3 {m}
  11.0652, -41.3957, 8.595;               !- X,Y,Z Vertex 4 {m}

Shading:Building:Detailed,
  overhang-storey-1-space-7,              !- Name
  ,                                       !- Transmittance Schedule Name
  ,                                       !- Number of Vertices
  -2.9395, -36.0327, 8.595,               !- X,Y,Z Vertex 1 {m}
  -6.817, -43.6428, 8.595,                !- X,Y,Z Vertex 2 {m}
  -6.0151, -44.0514, 8.595,               !- X,Y,Z Vertex 3 {m}
  -2.1376, -36.4413, 8.595;               !- X,Y,Z Vertex 4 {m}

Shading:Building:Detailed,
  overhang-storey-1-space-8,              !- Name
  ,                                       !- Transmittance Schedule Name
  ,                                       !- Number of Vertices
  -6.7799, -46.4445, 8.595,               !- X,Y,Z Vertex 1 {m}
  -4.8286, -47.4388, 8.595,               !- X,Y,Z Vertex 2 {m}
  -4.42, -46.6369, 8.595,                 !- X,Y,Z Vertex 3 {m}
  -6.3713, -45.6426, 8.595;               !- X,Y,Z Vertex 4 {m}

Shading:Building:Detailed,
  overhang-storey-1-space-9,              !- Name
  ,                                       !- Transmittance Schedule Name
  ,                                       !- Number of Vertices
  -4.9714, -46.6286, 8.595,               !- X,Y,Z Vertex 1 {m}
  -5.5679, -47.7994, 8.595,               !- X,Y,Z Vertex 2 {m}
  -4.766, -48.208, 8.595,                 !- X,Y,Z Vertex 3 {m}
  -4.1695, -47.0372, 8.595;               !- X,Y,Z Vertex 4 {m}

Shading:Building:Detailed,
  overhang-storey-2-space-1,              !- Name
  ,                                       !- Transmittance Schedule Name
  ,                                       !- Number of Vertices
  3.0922, -63.8432, 14.595,               !- X,Y,Z Vertex 1 {m}
  6.9698, -56.2331, 14.595,               !- X,Y,Z Vertex 2 {m}
  6.1679, -55.8246, 14.595,               !- X,Y,Z Vertex 3 {m}
  2.2903, -63.4346, 14.595;               !- X,Y,Z Vertex 4 {m}

Shading:Building:Detailed,
  overhang-storey-2-space-10,             !- Name
  ,                                       !- Transmittance Schedule Name
  ,                                       !- Number of Vertices
  -4.8286, -47.4388, 14.595,              !- X,Y,Z Vertex 1 {m}
  -6.7799, -46.4445, 14.595,              !- X,Y,Z Vertex 2 {m}
  -7.1885, -47.2464, 14.595,              !- X,Y,Z Vertex 3 {m}
  -5.2372, -48.2407, 14.595;              !- X,Y,Z Vertex 4 {m}

Shading:Building:Detailed,
  overhang-storey-2-space-11,             !- Name
  ,                                       !- Transmittance Schedule Name
  ,                                       !- Number of Vertices
  -9.0683, -48.0613, 14.595,              !- X,Y,Z Vertex 1 {m}
  -12.9459, -55.6714, 14.595,             !- X,Y,Z Vertex 2 {m}
  -12.144, -56.08, 14.595,                !- X,Y,Z Vertex 3 {m}
  -8.2664, -48.4699, 14.595;              !- X,Y,Z Vertex 4 {m}

Shading:Building:Detailed,
  overhang-storey-2-space-12,             !- Name
  ,                                       !- Transmittance Schedule Name
  ,                                       !- Number of Vertices
  -11.321, -59.2821, 14.595,              !- X,Y,Z Vertex 1 {m}
  -0.784, -64.651, 14.595,                !- X,Y,Z Vertex 2 {m}
  -0.3754, -63.8491, 14.595,              !- X,Y,Z Vertex 3 {m}
  -10.9124, -58.4802, 14.595;             !- X,Y,Z Vertex 4 {m}

Shading:Building:Detailed,
  overhang-storey-2-space-2,              !- Name
  ,                                       !- Transmittance Schedule Name
  ,                                       !- Number of Vertices
  6.9327, -53.4314, 14.595,               !- X,Y,Z Vertex 1 {m}
  4.9814, -52.4372, 14.595,               !- X,Y,Z Vertex 2 {m}
  4.5728, -53.2391, 14.595,               !- X,Y,Z Vertex 3 {m}
  6.5241, -54.2333, 14.595;               !- X,Y,Z Vertex 4 {m}

Shading:Building:Detailed,
  overhang-storey-2-space-3,              !- Name
  ,                                       !- Transmittance Schedule Name
  ,                                       !- Number of Vertices
  5.1242, -53.2473, 14.595,               !- X,Y,Z Vertex 1 {m}
  5.7207, -52.0765, 14.595,               !- X,Y,Z Vertex 2 {m}
  4.9188, -51.6679, 14.595,               !- X,Y,Z Vertex 3 {m}
  4.3222, -52.8387, 14.595;               !- X,Y,Z Vertex 4 {m}

Shading:Building:Detailed,
  overhang-storey-2-space-4,              !- Name
  ,                                       !- Transmittance Schedule Name
  ,                                       !- Number of Vertices
  4.9814, -52.4372, 14.595,               !- X,Y,Z Vertex 1 {m}
  6.9327, -53.4314, 14.595,               !- X,Y,Z Vertex 2 {m}
  7.3413, -52.6295, 14.595,               !- X,Y,Z Vertex 3 {m}
  5.39, -51.6353, 14.595;                 !- X,Y,Z Vertex 4 {m}

Shading:Building:Detailed,
  overhang-storey-2-space-5,              !- Name
  ,                                       !- Transmittance Schedule Name
  ,                                       !- Number of Vertices
  9.2211, -51.8146, 14.595,               !- X,Y,Z Vertex 1 {m}
  13.0986, -44.2046, 14.595,              !- X,Y,Z Vertex 2 {m}
  12.2967, -43.796, 14.595,               !- X,Y,Z Vertex 3 {m}
  8.4192, -51.4061, 14.595;               !- X,Y,Z Vertex 4 {m}

Shading:Building:Detailed,
  overhang-storey-2-space-6,              !- Name
  ,                                       !- Transmittance Schedule Name
  ,                                       !- Number of Vertices
  11.4738, -40.5938, 14.595,              !- X,Y,Z Vertex 1 {m}
  0.9367, -35.225, 14.595,                !- X,Y,Z Vertex 2 {m}
  0.5281, -36.0269, 14.595,               !- X,Y,Z Vertex 3 {m}
  11.0652, -41.3957, 14.595;              !- X,Y,Z Vertex 4 {m}

Shading:Building:Detailed,
  overhang-storey-2-space-7,              !- Name
  ,                                       !- Transmittance Schedule Name
  ,                                       !- Number of Vertices
  -2.9395, -36.0327, 14.595,              !- X,Y,Z Vertex 1 {m}
  -6.817, -43.6428, 14.595,               !- X,Y,Z Vertex 2 {m}
  -6.0151, -44.0514, 14.595,              !- X,Y,Z Vertex 3 {m}
  -2.1376, -36.4413, 14.595;              !- X,Y,Z Vertex 4 {m}

Shading:Building:Detailed,
  overhang-storey-2-space-8,              !- Name
  ,                                       !- Transmittance Schedule Name
  ,                                       !- Number of Vertices
  -6.7799, -46.4445, 14.595,              !- X,Y,Z Vertex 1 {m}
  -4.8286, -47.4388, 14.595,              !- X,Y,Z Vertex 2 {m}
  -4.42, -46.6369, 14.595,                !- X,Y,Z Vertex 3 {m}
  -6.3713, -45.6426, 14.595;              !- X,Y,Z Vertex 4 {m}

Shading:Building:Detailed,
  overhang-storey-2-space-9,              !- Name
  ,                                       !- Transmittance Schedule Name
  ,                                       !- Number of Vertices
  -4.9714, -46.6286, 14.595,              !- X,Y,Z Vertex 1 {m}
  -5.5679, -47.7994, 14.595,              !- X,Y,Z Vertex 2 {m}
  -4.766, -48.208, 14.595,                !- X,Y,Z Vertex 3 {m}
  -4.1695, -47.0372, 14.595;              !- X,Y,Z Vertex 4 {m}

Shading:Building:Detailed,
  overhang-storey-3-space-1,              !- Name
  ,                                       !- Transmittance Schedule Name
  ,                                       !- Number of Vertices
  3.0922, -63.8432, 20.595,               !- X,Y,Z Vertex 1 {m}
  6.9698, -56.2331, 20.595,               !- X,Y,Z Vertex 2 {m}
  6.1679, -55.8246, 20.595,               !- X,Y,Z Vertex 3 {m}
  2.2903, -63.4346, 20.595;               !- X,Y,Z Vertex 4 {m}

Shading:Building:Detailed,