
OS:Version,
  {239987d3-3c5b-4749-a7e0-c106e0403b83}, !- Handle
  2.5.0;                                  !- Version Identifier

OS:RunPeriod,
  {ec73ff14-d686-4370-b2aa-469bce28293a}, !- Handle
  Run Period 1,                           !- Name
  1,                                      !- Begin Month
  1,                                      !- Begin Day of Month
  12,                                     !- End Month
  31,                                     !- End Day of Month
  ,                                       !- Use Weather File Holidays and Special Days
  ,                                       !- Use Weather File Daylight Saving Period
  ,                                       !- Apply Weekend Holiday Rule
  ,                                       !- Use Weather File Rain Indicators
  ,                                       !- Use Weather File Snow Indicators
  ;                                       !- Number of Times Runperiod to be Repeated

OS:Timestep,
  {b45ead32-910d-4ba8-82ff-2ad42395e08b}, !- Handle
  6;                                      !- Number of Timesteps per Hour

OS:Building,
  {1453824d-c979-4592-9e09-594fdc41b247}, !- Handle
  Building 1,                             !- Name
  ,                                       !- Building Sector Type
  0,                                      !- North Axis {deg}
  ,                                       !- Nominal Floor to Floor Height {m}
  ,                                       !- Space Type Name
  ,                                       !- Default Construction Set Name
  ;                                       !- Default Schedule Set Name

OS:Site,
  {2dbc76d2-e5b2-4a2d-9571-bf4a98881395}, !- Handle
  LONDON/GATWICK	GBR,                     !- Name
  51.15,                                  !- Latitude {deg}
  -0.18,                                  !- Longitude {deg}
  0,                                      !- Time Zone {hr}
  62,                                     !- Elevation {m}
  City;                                   !- Terrain

OS:WeatherFile,
  {8fd34c20-531e-4776-bad0-71e5b4aa8869}, !- Handle
  LONDON/GATWICK,                         !- City
  -,                                      !- State Province Region
  GBR,                                    !- Country
  IWEC Data,                              !- Data Source
  037760,                                 !- WMO Number
  51.15,                                  !- Latitude {deg}
  -0.18,                                  !- Longitude {deg}
  0,                                      !- Time Zone {hr}
  62,                                     !- Elevation {m}
  file:///c:/ladybug/GBR_London.Gatwick.037760_IWEC/GBR_London.Gatwick.037760_IWEC.epw, !- Url
  6163FBFD;                               !- Checksum

OS:SimulationControl,
  {33e55de9-fc90-48dd-9e78-e6cc823ae3c5}, !- Handle
  Yes,                                    !- Do Zone Sizing Calculation
  Yes,                                    !- Do System Sizing Calculation
  Yes,                                    !- Do Plant Sizing Calculation
  No,                                     !- Run Simulation for Sizing Periods
  Yes,                                    !- Run Simulation for Weather File Run Periods
  ,                                       !- Loads Convergence Tolerance Value
  ,                                       !- Temperature Convergence Tolerance Value {deltaC}
  FullInteriorAndExteriorWithReflections; !- Solar Distribution

OS:ShadowCalculation,
  {b09059a7-8e2c-466c-8992-25c504c17037}, !- Handle
  30,                                     !- Calculation Frequency
  3000;                                   !- Maximum Figures in Shadow Overlap Calculations

OS:Sizing:Parameters,
  {eef9b995-5b8a-4a9a-a5a0-a96d6164e844}, !- Handle
  1.25,                                   !- Heating Sizing Factor
  1.15;                                   !- Cooling Sizing Factor

OS:SizingPeriod:DesignDay,
  {dc8d8141-d286-469a-8780-ab357250582d}, !- Handle
  LONDON/GATWICK Ann Htg Wind 99.6% Condns WS=>MCDB, !- Name
  7.9,                                    !- Maximum Dry-Bulb Temperature {C}
  0,                                      !- Daily Dry-Bulb Temperature Range {deltaC}
  7.9,                                    !- Humidity Indicating Conditions at Maximum Dry-Bulb
  100582,                                 !- Barometric Pressure {Pa}
  12.6,                                   !- Wind Speed {m/s}
  80,                                     !- Wind Direction {deg}
  0,                                      !- Sky Clearness
  0,                                      !- Rain Indicator
  0,                                      !- Snow Indicator
  21,                                     !- Day of Month
  2,                                      !- Month
  WinterDesignDay,                        !- Day Type
  0,                                      !- Daylight Saving Time Indicator
  Wetbulb,                                !- Humidity Indicating Type
  ,                                       !- Humidity Indicating Day Schedule Name
  DefaultMultipliers,                     !- Dry-Bulb Temperature Range Modifier Type
  ,                                       !- Dry-Bulb Temperature Range Modifier Schedule Name
  ASHRAEClearSky;                         !- Solar Model Indicator

OS:SizingPeriod:DesignDay,
  {6ee0620a-24fb-485e-896b-cfbdd181a911}, !- Handle
  LONDON/GATWICK Ann Htg 99.6% Condns DB, !- Name
  -4.6,                                   !- Maximum Dry-Bulb Temperature {C}
  0,                                      !- Daily Dry-Bulb Temperature Range {deltaC}
  -4.6,                                   !- Humidity Indicating Conditions at Maximum Dry-Bulb
  100582,                                 !- Barometric Pressure {Pa}
  1.5,                                    !- Wind Speed {m/s}
  80,                                     !- Wind Direction {deg}
  0,                                      !- Sky Clearness
  0,                                      !- Rain Indicator
  0,                                      !- Snow Indicator
  21,                                     !- Day of Month
  2,                                      !- Month
  WinterDesignDay,                        !- Day Type
  0,                                      !- Daylight Saving Time Indicator
  Wetbulb,                                !- Humidity Indicating Type
  ,                                       !- Humidity Indicating Day Schedule Name
  DefaultMultipliers,                     !- Dry-Bulb Temperature Range Modifier Type
  ,                                       !- Dry-Bulb Temperature Range Modifier Schedule Name
  ASHRAEClearSky;                         !- Solar Model Indicator

OS:SizingPeriod:DesignDay,
  {4c4b6768-3e68-4e52-9077-d1725a34eced}, !- Handle
  LONDON/GATWICK Ann Clg .4% Condns DB=>MWB, !- Name
  27.2,                                   !- Maximum Dry-Bulb Temperature {C}
  9.7,                                    !- Daily Dry-Bulb Temperature Range {deltaC}
  18.7,                                   !- Humidity Indicating Conditions at Maximum Dry-Bulb
  100582,                                 !- Barometric Pressure {Pa}
  3.5,                                    !- Wind Speed {m/s}
  90,                                     !- Wind Direction {deg}
  0,                                      !- Sky Clearness
  0,                                      !- Rain Indicator
  0,                                      !- Snow Indicator
  21,                                     !- Day of Month
  7,                                      !- Month
  SummerDesignDay,                        !- Day Type
  0,                                      !- Daylight Saving Time Indicator
  Wetbulb,                                !- Humidity Indicating Type
  ,                                       !- Humidity Indicating Day Schedule Name
  DefaultMultipliers,                     !- Dry-Bulb Temperature Range Modifier Type
  ,                                       !- Dry-Bulb Temperature Range Modifier Schedule Name
  ASHRAETau,                              !- Solar Model Indicator
  ,                                       !- Beam Solar Day Schedule Name
  ,                                       !- Diffuse Solar Day Schedule Name
  0.455,                                  !- ASHRAE Taub {dimensionless}
  1.974;                                  !- ASHRAE Taud {dimensionless}

OS:SizingPeriod:DesignDay,
  {308c142d-b4f3-4a3d-a730-697aa092eb0d}, !- Handle
  LONDON/GATWICK Ann Clg .4% Condns DP=>MDB, !- Name
  21.9,                                   !- Maximum Dry-Bulb Temperature {C}
  9.7,                                    !- Daily Dry-Bulb Temperature Range {deltaC}
  17.8,                                   !- Humidity Indicating Conditions at Maximum Dry-Bulb
  100582,                                 !- Barometric Pressure {Pa}
  3.5,                                    !- Wind Speed {m/s}
  90,                                     !- Wind Direction {deg}
  0,                                      !- Sky Clearness
  0,                                      !- Rain Indicator
  0,                                      !- Snow Indicator
  21,                                     !- Day of Month
  7,                                      !- Month
  SummerDesignDay,                        !- Day Type
  0,                                      !- Daylight Saving Time Indicator
  Dewpoint,                               !- Humidity Indicating Type
  ,                                       !- Humidity Indicating Day Schedule Name
  DefaultMultipliers,                     !- Dry-Bulb Temperature Range Modifier Type
  ,                                       !- Dry-Bulb Temperature Range Modifier Schedule Name
  ASHRAETau,                              !- Solar Model Indicator
  ,                                       !- Beam Solar Day Schedule Name
  ,                                       !- Diffuse Solar Day Schedule Name
  0.455,                                  !- ASHRAE Taub {dimensionless}
  1.974;                                  !- ASHRAE Taud {dimensionless}

OS:SizingPeriod:DesignDay,
  {2e6c094c-c220-461a-b814-5d0858da06ba}, !- Handle
  LONDON/GATWICK Ann Hum_n 99.6% Condns DP=>MCDB, !- Name
  -2.1,                                   !- Maximum Dry-Bulb Temperature {C}
  0,                                      !- Daily Dry-Bulb Temperature Range {deltaC}
  -7.6,                                   !- Humidity Indicating Conditions at Maximum Dry-Bulb
  100582,                                 !- Barometric Pressure {Pa}
  1.5,                                    !- Wind Speed {m/s}
  80,                                     !- Wind Direction {deg}
  0,                                      !- Sky Clearness
  0,                                      !- Rain Indicator
  0,                                      !- Snow Indicator
  21,                                     !- Day of Month
  2,                                      !- Month
  WinterDesignDay,                        !- Day Type
  0,                                      !- Daylight Saving Time Indicator
  Dewpoint,                               !- Humidity Indicating Type
  ,                                       !- Humidity Indicating Day Schedule Name
  DefaultMultipliers,                     !- Dry-Bulb Temperature Range Modifier Type
  ,                                       !- Dry-Bulb Temperature Range Modifier Schedule Name
  ASHRAEClearSky;                         !- Solar Model Indicator

OS:SizingPeriod:DesignDay,
  {b78d2d55-6b1e-407c-b67d-b708c161c81e}, !- Handle
  LONDON/GATWICK Ann Clg .4% Condns WB=>MDB, !- Name
  25.4,                                   !- Maximum Dry-Bulb Temperature {C}
  9.7,                                    !- Daily Dry-Bulb Temperature Range {deltaC}
  19.7,                                   !- Humidity Indicating Conditions at Maximum Dry-Bulb
  100582,                                 !- Barometric Pressure {Pa}
  3.5,                                    !- Wind Speed {m/s}
  90,                                     !- Wind Direction {deg}
  0,                                      !- Sky Clearness
  0,                                      !- Rain Indicator
  0,                                      !- Snow Indicator
  21,                                     !- Day of Month
  7,                                      !- Month
  SummerDesignDay,                        !- Day Type
  0,                                      !- Daylight Saving Time Indicator
  Wetbulb,                                !- Humidity Indicating Type
  ,                                       !- Humidity Indicating Day Schedule Name
  DefaultMultipliers,                     !- Dry-Bulb Temperature Range Modifier Type
  ,                                       !- Dry-Bulb Temperature Range Modifier Schedule Name
  ASHRAETau,                              !- Solar Model Indicator
  ,                                       !- Beam Solar Day Schedule Name
  ,                                       !- Diffuse Solar Day Schedule Name
  0.455,                                  !- ASHRAE Taub {dimensionless}
  1.974;                                  !- ASHRAE Taud {dimensionless}

OS:SizingPeriod:DesignDay,
  {fe713347-b845-4ac1-ae6c-56b777032632}, !- Handle
  LONDON/GATWICK Ann Clg .4% Condns Enth=>MDB, !- Name
  25.7,                                   !- Maximum Dry-Bulb Temperature {C}
  9.7,                                    !- Daily Dry-Bulb Temperature Range {deltaC}
  56300,                                  !- Humidity Indicating Conditions at Maximum Dry-Bulb
  100582,                                 !- Barometric Pressure {Pa}
  3.5,                                    !- Wind Speed {m/s}
  90,                                     !- Wind Direction {deg}
  0,                                      !- Sky Clearness
  0,                                      !- Rain Indicator
  0,                                      !- Snow Indicator
  21,                                     !- Day of Month
  7,                                      !- Month
  SummerDesignDay,                        !- Day Type
  0,                                      !- Daylight Saving Time Indicator
  Enthalpy,                               !- Humidity Indicating Type
  ,                                       !- Humidity Indicating Day Schedule Name
  DefaultMultipliers,                     !- Dry-Bulb Temperature Range Modifier Type
  ,                                       !- Dry-Bulb Temperature Range Modifier Schedule Name
  ASHRAETau,                              !- Solar Model Indicator
  ,                                       !- Beam Solar Day Schedule Name
  ,                                       !- Diffuse Solar Day Schedule Name
  0.455,                                  !- ASHRAE Taub {dimensionless}
  1.974;                                  !- ASHRAE Taud {dimensionless}

OS:BuildingStory,
  {89174617-8b3e-475d-b1fd-6cf23f3c31e0}, !- Handle
  Building Story 1,                       !- Name
  -4,                                     !- Nominal Z Coordinate {m}
  ,                                       !- Nominal Floor to Floor Height {m}
  ,                                       !- Default Construction Set Name
  ,                                       !- Default Schedule Set Name
  ;                                       !- Group Rendering Name

OS:BuildingStory,
  {2122084a-3edd-4b82-a7c9-529e4def03c7}, !- Handle
  Building Story 2,                       !- Name
  0,                                      !- Nominal Z Coordinate {m}
  ,                                       !- Nominal Floor to Floor Height {m}
  ,                                       !- Default Construction Set Name
  ,                                       !- Default Schedule Set Name
  ;                                       !- Group Rendering Name

OS:BuildingStory,
  {ba77f38e-2931-499e-95bc-e45373143ddb}, !- Handle
  Building Story 3,                       !- Name
  4.5,                                    !- Nominal Z Coordinate {m}
  ,                                       !- Nominal Floor to Floor Height {m}
  ,                                       !- Default Construction Set Name
  ,                                       !- Default Schedule Set Name
  ;                                       !- Group Rendering Name

OS:Material,
  {0911d27d-94ad-4c75-bb6d-3a1cb01e2bec}, !- Handle
  F16 Acoustic tile,                      !- Name
  MediumSmooth,                           !- Roughness
  0.0191,                                 !- Thickness {m}
  0.06,                                   !- Conductivity {W/m-K}
  368,                                    !- Density {kg/m3}
  590.000000000002,                       !- Specific Heat {J/kg-K}
  0.9,                                    !- Thermal Absorptance
  0.3;                                    !- Solar Absorptance

OS:Material:AirGap,
  {6cd3640b-d163-48b7-8b49-56afd65500d9}, !- Handle
  Material Air Gap 1,                     !- Name
  0.18;                                   !- Thermal Resistance {m2-K/W}

OS:Material,
  {9f049c72-86e8-4696-bf1e-7643956a2637}, !- Handle
  M11 100mm lightweight concrete,         !- Name
  MediumRough,                            !- Roughness
  0.1016,                                 !- Thickness {m}
  0.53,                                   !- Conductivity {W/m-K}
  1280,                                   !- Density {kg/m3}
  840.000000000002,                       !- Specific Heat {J/kg-K}
  0.9,                                    !- Thermal Absorptance
  0.5;                                    !- Solar Absorptance

OS:Construction,
  {66b512c1-b77e-4c95-aa61-f5855a77131e}, !- Handle
  Interior Floor,                         !- Name
  ,                                       !- Surface Rendering Name
  {0911d27d-94ad-4c75-bb6d-3a1cb01e2bec}, !- Layer 1
  {6cd3640b-d163-48b7-8b49-56afd65500d9}, !- Layer 2
  {9f049c72-86e8-4696-bf1e-7643956a2637}; !- Layer 3

OS:Material,
  {d1e6dcc9-4c1e-4aac-9cc4-6e054cea6488}, !- Handle
  I02 50mm insulation board,              !- Name
  MediumRough,                            !- Roughness
  0.0508,                                 !- Thickness {m}
  0.03,                                   !- Conductivity {W/m-K}
  43,                                     !- Density {kg/m3}
  1210,                                   !- Specific Heat {J/kg-K}
  0.9,                                    !- Thermal Absorptance
  0.7;                                    !- Solar Absorptance

OS:Material,
  {c1ba03e1-6ae2-47b9-89bd-1742639ae7ef}, !- Handle
  M15 200mm heavyweight concrete,         !- Name
  MediumRough,                            !- Roughness
  0.2032,                                 !- Thickness {m}
  1.95,                                   !- Conductivity {W/m-K}
  2240,                                   !- Density {kg/m3}
  900,                                    !- Specific Heat {J/kg-K}
  0.9,                                    !- Thermal Absorptance
  0.7;                                    !- Solar Absorptance

OS:Construction,
  {ce8e9fa0-8cc4-4878-9edd-6bb22e196289}, !- Handle
  Exterior Floor,                         !- Name
  ,                                       !- Surface Rendering Name
  {d1e6dcc9-4c1e-4aac-9cc4-6e054cea6488}, !- Layer 1
  {c1ba03e1-6ae2-47b9-89bd-1742639ae7ef}; !- Layer 2

OS:Construction,
  {2fe3c402-a343-4d14-9f6b-f674456183bf}, !- Handle
  Interior Ceiling,                       !- Name
  ,                                       !- Surface Rendering Name
  {9f049c72-86e8-4696-bf1e-7643956a2637}, !- Layer 1
  {6cd3640b-d163-48b7-8b49-56afd65500d9}, !- Layer 2
  {0911d27d-94ad-4c75-bb6d-3a1cb01e2bec}; !- Layer 3

OS:Material,
  {b8fe8d64-bc80-442f-bba1-9a5b326a3552}, !- Handle
  M01 100mm brick,                        !- Name
  MediumRough,                            !- Roughness
  0.1016,                                 !- Thickness {m}
  0.89,                                   !- Conductivity {W/m-K}
  1920,                                   !- Density {kg/m3}
  790,                                    !- Specific Heat {J/kg-K}
  0.9,                                    !- Thermal Absorptance
  0.7;                                    !- Solar Absorptance

OS:Material:AirGap,
  {e1ad9b94-17fe-4b47-9d29-57f166929043}, !- Handle
  Material Air Gap 2,                     !- Name
  0.15;                                   !- Thermal Resistance {m2-K/W}

OS:Material,
  {e4ee046c-f25a-40d5-9bb5-98242cb3089b}, !- Handle
  G01a 19mm gypsum board,                 !- Name
  MediumSmooth,                           !- Roughness
  0.019,                                  !- Thickness {m}
  0.16,                                   !- Conductivity {W/m-K}
  800,                                    !- Density {kg/m3}
  1090,                                   !- Specific Heat {J/kg-K}
  0.9,                                    !- Thermal Absorptance
  0.4;                                    !- Solar Absorptance

OS:Construction,
  {11979ca4-dc5d-43c0-9748-60aebc8f80c0}, !- Handle
  Exterior Wall,                          !- Name
  ,                                       !- Surface Rendering Name
  {b8fe8d64-bc80-442f-bba1-9a5b326a3552}, !- Layer 1
  {c1ba03e1-6ae2-47b9-89bd-1742639ae7ef}, !- Layer 2
  {d1e6dcc9-4c1e-4aac-9cc4-6e054cea6488}, !- Layer 3
  {e1ad9b94-17fe-4b47-9d29-57f166929043}, !- Layer 4
  {e4ee046c-f25a-40d5-9bb5-98242cb3089b}; !- Layer 5

OS:WindowMaterial:Glazing,
  {ae9fe6a2-12b7-4f7f-a5e4-0e94f6130423}, !- Handle
  Clear 3mm,                              !- Name
  SpectralAverage,                        !- Optical Data Type
  ,                                       !- Window Glass Spectral Data Set Name
  0.00299999999999999,                    !- Thickness {m}
  0.837,                                  !- Solar Transmittance at Normal Incidence
  0.075,                                  !- Front Side Solar Reflectance at Normal Incidence
  0,                                      !- Back Side Solar Reflectance at Normal Incidence
  0.898,                                  !- Visible Transmittance at Normal Incidence
  0.081,                                  !- Front Side Visible Reflectance at Normal Incidence
  0,                                      !- Back Side Visible Reflectance at Normal Incidence
  0,                                      !- Infrared Transmittance at Normal Incidence
  0.84,                                   !- Front Side Infrared Hemispherical Emissivity
  0.84,                                   !- Back Side Infrared Hemispherical Emissivity
  0.9,                                    !- Conductivity {W/m-K}
  1;                                      !- Dirt Correction Factor for Solar and Visible Transmittance

OS:WindowMaterial:Gas,
  {19d66857-d056-41ee-92e2-28054dc20517}, !- Handle
  Air 13mm,                               !- Name
  Air,                                    !- Gas Type
  0.0127;                                 !- Thickness {m}

OS:Construction,
  {276a6973-45da-4c59-9e0b-56484fd65adb}, !- Handle
  Exterior Window,                        !- Name
  ,                                       !- Surface Rendering Name
  {ae9fe6a2-12b7-4f7f-a5e4-0e94f6130423}, !- Layer 1
  {19d66857-d056-41ee-92e2-28054dc20517}, !- Layer 2
  {ae9fe6a2-12b7-4f7f-a5e4-0e94f6130423}; !- Layer 3

OS:Construction,
  {e35eb618-7aa2-4af6-9613-e5b9d9a47efd}, !- Handle
  Interior Wall,                          !- Name
  ,                                       !- Surface Rendering Name
  {e4ee046c-f25a-40d5-9bb5-98242cb3089b}, !- Layer 1
  {e1ad9b94-17fe-4b47-9d29-57f166929043}, !- Layer 2
  {e4ee046c-f25a-40d5-9bb5-98242cb3089b}; !- Layer 3

OS:Construction,
  {10eb0f4a-b8b3-4f17-a66e-1965fdbd5062}, !- Handle
  Exterior Roof,                          !- Name
  ,                                       !- Surface Rendering Name
  {9f049c72-86e8-4696-bf1e-7643956a2637}, !- Layer 1
  {6cd3640b-d163-48b7-8b49-56afd65500d9}, !- Layer 2
  {0911d27d-94ad-4c75-bb6d-3a1cb01e2bec}; !- Layer 3

OS:DefaultConstructionSet,
  {69b88d04-27fc-4808-9d76-c9db03a30ae4}, !- Handle
  Default Construction Set 1,             !- Name
  {390ea472-60d8-4974-8891-7bfd31d51e1b}, !- Default Exterior Surface Constructions Name
  {1c89c2cf-cf69-4880-ac8c-fc218acaf5d4}, !- Default Interior Surface Constructions Name
  {c760e4f4-05e8-446d-8616-0a66cab1cec9}, !- Default Ground Contact Surface Constructions Name
  {e4cd5eed-6821-471a-8cba-d2a4845ad703}, !- Default Exterior SubSurface Constructions Name
  {be05f2ee-244d-47ea-9d2e-62dc342c0faa}, !- Default Interior SubSurface Constructions Name
  ,                                       !- Interior Partition Construction Name
  ,                                       !- Space Shading Construction Name
  ,                                       !- Building Shading Construction Name
  ;                                       !- Site Shading Construction Name

OS:DefaultSurfaceConstructions,
  {390ea472-60d8-4974-8891-7bfd31d51e1b}, !- Handle
  Default Surface Constructions 1,        !- Name
  {ce8e9fa0-8cc4-4878-9edd-6bb22e196289}, !- Floor Construction Name
  {11979ca4-dc5d-43c0-9748-60aebc8f80c0}, !- Wall Construction Name
  {10eb0f4a-b8b3-4f17-a66e-1965fdbd5062}; !- Roof Ceiling Construction Name

OS:DefaultSurfaceConstructions,
  {1c89c2cf-cf69-4880-ac8c-fc218acaf5d4}, !- Handle
  Default Surface Constructions 2,        !- Name
  {66b512c1-b77e-4c95-aa61-f5855a77131e}, !- Floor Construction Name
  {e35eb618-7aa2-4af6-9613-e5b9d9a47efd}, !- Wall Construction Name
  {2fe3c402-a343-4d14-9f6b-f674456183bf}; !- Roof Ceiling Construction Name

OS:DefaultSurfaceConstructions,
  {c760e4f4-05e8-446d-8616-0a66cab1cec9}, !- Handle
  Default Surface Constructions 3,        !- Name
  {ce8e9fa0-8cc4-4878-9edd-6bb22e196289}, !- Floor Construction Name
  {11979ca4-dc5d-43c0-9748-60aebc8f80c0}, !- Wall Construction Name
  {10eb0f4a-b8b3-4f17-a66e-1965fdbd5062}; !- Roof Ceiling Construction Name

OS:DefaultSubSurfaceConstructions,
  {e4cd5eed-6821-471a-8cba-d2a4845ad703}, !- Handle
  Default Sub Surface Constructions 1,    !- Name
  {276a6973-45da-4c59-9e0b-56484fd65adb}, !- Fixed Window Construction Name
  ,                                       !- Operable Window Construction Name
  ,                                       !- Door Construction Name
  ,                                       !- Glass Door Construction Name
  ,                                       !- Overhead Door Construction Name
  {276a6973-45da-4c59-9e0b-56484fd65adb}, !- Skylight Construction Name
  ,                                       !- Tubular Daylight Dome Construction Name
  ;                                       !- Tubular Daylight Diffuser Construction Name

OS:DefaultSubSurfaceConstructions,
  {be05f2ee-244d-47ea-9d2e-62dc342c0faa}, !- Handle
  Default Sub Surface Constructions 2,    !- Name
  {276a6973-45da-4c59-9e0b-56484fd65adb}, !- Fixed Window Construction Name
  ,                                       !- Operable Window Construction Name
  ,                                       !- Door Construction Name
  ,                                       !- Glass Door Construction Name
  ,                                       !- Overhead Door Construction Name
  ,                                       !- Skylight Construction Name
  ,                                       !- Tubular Daylight Dome Construction Name
  ;                                       !- Tubular Daylight Diffuser Construction Name

OS:Space,
  {ceaedfa8-ba8a-42c5-980d-10eeac7ffb85}, !- Handle
  00_002_Circulation_space,               !- Name
  {3d1a202a-b2b9-4899-8a61-859dbf790d13}, !- Space Type Name
  {69b88d04-27fc-4808-9d76-c9db03a30ae4}, !- Default Construction Set Name
  ,                                       !- Default Schedule Set Name
  ,                                       !- Direction of Relative North {deg}
  ,                                       !- X Origin {m}
  ,                                       !- Y Origin {m}
  ,                                       !- Z Origin {m}
  {2122084a-3edd-4b82-a7c9-529e4def03c7}, !- Building Story Name
  {cc9a6a98-d93b-49d2-b7a5-5c11db7d29ad}; !- Thermal Zone Name

OS:SpaceType,
  {3d1a202a-b2b9-4899-8a61-859dbf790d13}, !- Handle
  Office:OpenOffice:00_002_Circulation,   !- Name
  ,                                       !- Default Construction Set Name
  {66fbc24b-7095-4401-a845-e1691184d251}, !- Default Schedule Set Name
  ,                                       !- Group Rendering Name
  {7a40725d-f42a-4a6d-918a-0fa41ddbde6d}; !- Design Specification Outdoor Air Object Name

OS:DefaultScheduleSet,
  {66fbc24b-7095-4401-a845-e1691184d251}, !- Handle
  00_002_Circulation_DefaultScheduleSet,  !- Name
  {890013eb-1362-4dcf-ba09-915f854722e9}, !- Hours of Operation Schedule Name
  ,                                       !- Number of People Schedule Name
  {3adb24f9-4244-4070-b71c-35f13f116244}, !- People Activity Level Schedule Name
  {d43a3923-c6f9-4e3c-9fea-23219dbd9983}, !- Lighting Schedule Name
  {31ea7a30-309f-4e3b-8c74-3abe2becfb29}, !- Electric Equipment Schedule Name
  ,                                       !- Gas Equipment Schedule Name
  ,                                       !- Hot Water Equipment Schedule Name
  {2a71caff-3231-4296-8b3c-06f2bae66409}, !- Infiltration Schedule Name
  ,                                       !- Steam Equipment Schedule Name
  ;                                       !- Other Equipment Schedule Name

OS:ScheduleTypeLimits,
  {49b25eb8-3919-49d3-b8e1-a53de6f5600a}, !- Handle
  Schedule Type Limits 1,                 !- Name
  0,                                      !- Lower Limit Value
  1,                                      !- Upper Limit Value
  CONTINUOUS;                             !- Numeric Type

OS:Schedule:Year,