
Version,
  8.8;                                    !- Version Identifier

LifeCycleCost:Parameters,
  {6a0f0167-2a0a-4b3c-8221-0e358e2e0d4e}, !- Name
  EndOfYear,                              !- Discounting Convention
  ConstantDollar,                         !- Inflation Approach
  0.03,                                   !- Real Discount Rate
  ,                                       !- Nominal Discount Rate
  ,                                       !- Inflation
  ,                                       !- Base Date Month
  2011,                                   !- Base Date Year
  ,                                       !- Service Date Month
  2011,                                   !- Service Date Year
  25,                                     !- Length of Study Period in Years
  ,                                       !- Tax rate
  None;                                   !- Depreciation Method

LifeCycleCost:UsePriceEscalation,
  U.S. Avg  Commercial-Electricity,       !- LCC Price Escalation Name
  Electricity,                            !- Resource
  2011,                                   !- Escalation Start Year
  January,                                !- Escalation Start Month
  0.9838,                                 !- Year Escalation 1
  0.9730,                                 !- Year Escalation 2
  0.9632,                                 !- Year Escalation 3
  0.9611,                                 !- Year Escalation 4
  0.9571,                                 !- Year Escalation 5
  0.9553,                                 !- Year Escalation 6
  0.9539,                                 !- Year Escalation 7
  0.9521,                                 !- Year Escalation 8
  0.9546,                                 !- Year Escalation 9
  0.9550,                                 !- Year Escalation 10
  0.9553,                                 !- Year Escalation 11
  0.9564,                                 !- Year Escalation 12
  0.9575,                                 !- Year Escalation 13
  0.9596,                                 !- Year Escalation 14
  0.9618,                                 !- Year Escalation 15
  0.9614,                                 !- Year Escalation 16
  0.9618,                                 !- Year Escalation 17
  0.9618,                                 !- Year Escalation 18
  0.9593,                                 !- Year Escalation 19
  0.9589,                                 !- Year Escalation 20
  0.9607,                                 !- Year Escalation 21
  0.9625,                                 !- Year Escalation 22
  0.9650,                                 !- Year Escalation 23
  0.9708,                                 !- Year Escalation 24
  0.9751,                                 !- Year Escalation 25
  0.9762,                                 !- Year Escalation 26
  0.9766,                                 !- Year Escalation 27
  0.9766,                                 !- Year Escalation 28
  0.9769,                                 !- Year Escalation 29
  0.9773;                                 !- Year Escalation 30

LifeCycleCost:UsePriceEscalation,
  U.S. Avg  Commercial-Distillate Oil,    !- LCC Price Escalation Name
  FuelOil#1,                              !- Resource
  2011,                                   !- Escalation Start Year
  January,                                !- Escalation Start Month
  0.9714,                                 !- Year Escalation 1
  0.9730,                                 !- Year Escalation 2
  0.9942,                                 !- Year Escalation 3
  1.0164,                                 !- Year Escalation 4
  1.0541,                                 !- Year Escalation 5
  1.0928,                                 !- Year Escalation 6
  1.1267,                                 !- Year Escalation 7
  1.1580,                                 !- Year Escalation 8
  1.1792,                                 !- Year Escalation 9
  1.1967,                                 !- Year Escalation 10
  1.2200,                                 !- Year Escalation 11
  1.2333,                                 !- Year Escalation 12
  1.2566,                                 !- Year Escalation 13
  1.2709,                                 !- Year Escalation 14
  1.2826,                                 !- Year Escalation 15
  1.2985,                                 !- Year Escalation 16
  1.3102,                                 !- Year Escalation 17
  1.3250,                                 !- Year Escalation 18
  1.3261,                                 !- Year Escalation 19
  1.3282,                                 !- Year Escalation 20
  1.3324,                                 !- Year Escalation 21
  1.3356,                                 !- Year Escalation 22
  1.3431,                                 !- Year Escalation 23
  1.3510,                                 !- Year Escalation 24
  1.3568,                                 !- Year Escalation 25
  1.3606,                                 !- Year Escalation 26
  1.3637,                                 !- Year Escalation 27
  1.3674,                                 !- Year Escalation 28
  1.3706,                                 !- Year Escalation 29
  1.3743;                                 !- Year Escalation 30

LifeCycleCost:UsePriceEscalation,
  U.S. Avg  Commercial-Residual Oil,      !- LCC Price Escalation Name
  FuelOil#2,                              !- Resource
  2011,                                   !- Escalation Start Year
  January,                                !- Escalation Start Month
  0.8469,                                 !- Year Escalation 1
  0.8257,                                 !- Year Escalation 2
  0.8681,                                 !- Year Escalation 3
  0.8988,                                 !- Year Escalation 4
  0.9289,                                 !- Year Escalation 5
  0.9604,                                 !- Year Escalation 6
  0.9897,                                 !- Year Escalation 7
  1.0075,                                 !- Year Escalation 8
  1.0314,                                 !- Year Escalation 9
  1.0554,                                 !- Year Escalation 10
  1.0861,                                 !- Year Escalation 11
  1.1278,                                 !- Year Escalation 12
  1.1497,                                 !- Year Escalation 13
  1.1620,                                 !- Year Escalation 14
  1.1743,                                 !- Year Escalation 15
  1.1852,                                 !- Year Escalation 16
  1.1948,                                 !- Year Escalation 17
  1.2037,                                 !- Year Escalation 18
  1.2071,                                 !- Year Escalation 19
  1.2119,                                 !- Year Escalation 20
  1.2139,                                 !- Year Escalation 21
  1.2194,                                 !- Year Escalation 22
  1.2276,                                 !- Year Escalation 23
  1.2365,                                 !- Year Escalation 24
  1.2420,                                 !- Year Escalation 25
  1.2461,                                 !- Year Escalation 26
  1.2509,                                 !- Year Escalation 27
  1.2550,                                 !- Year Escalation 28
  1.2591,                                 !- Year Escalation 29
  1.2638;                                 !- Year Escalation 30

LifeCycleCost:UsePriceEscalation,
  U.S. Avg  Commercial-Natural gas,       !- LCC Price Escalation Name
  NaturalGas,                             !- Resource
  2011,                                   !- Escalation Start Year
  January,                                !- Escalation Start Month
  0.9823,                                 !- Year Escalation 1
  0.9557,                                 !- Year Escalation 2
  0.9279,                                 !- Year Escalation 3
  0.9257,                                 !- Year Escalation 4
  0.9346,                                 !- Year Escalation 5
  0.9412,                                 !- Year Escalation 6
  0.9512,                                 !- Year Escalation 7
  0.9645,                                 !- Year Escalation 8
  0.9856,                                 !- Year Escalation 9
  1.0067,                                 !- Year Escalation 10
  1.0222,                                 !- Year Escalation 11
  1.0410,                                 !- Year Escalation 12
  1.0610,                                 !- Year Escalation 13
  1.0787,                                 !- Year Escalation 14
  1.0942,                                 !- Year Escalation 15
  1.1098,                                 !- Year Escalation 16
  1.1220,                                 !- Year Escalation 17
  1.1308,                                 !- Year Escalation 18
  1.1386,                                 !- Year Escalation 19
  1.1486,                                 !- Year Escalation 20
  1.1619,                                 !- Year Escalation 21
  1.1763,                                 !- Year Escalation 22
  1.1918,                                 !- Year Escalation 23
  1.2118,                                 !- Year Escalation 24
  1.2284,                                 !- Year Escalation 25
  1.2439,                                 !- Year Escalation 26
  1.2605,                                 !- Year Escalation 27
  1.2772,                                 !- Year Escalation 28
  1.2938,                                 !- Year Escalation 29
  1.3115;                                 !- Year Escalation 30

LifeCycleCost:UsePriceEscalation,
  U.S. Avg  Commercial-Coal,              !- LCC Price Escalation Name
  Coal,                                   !- Resource
  2011,                                   !- Escalation Start Year
  January,                                !- Escalation Start Month
  0.9970,                                 !- Year Escalation 1
  1.0089,                                 !- Year Escalation 2
  1.0089,                                 !- Year Escalation 3
  0.9941,                                 !- Year Escalation 4
  0.9941,                                 !- Year Escalation 5
  1.0000,                                 !- Year Escalation 6
  1.0030,                                 !- Year Escalation 7
  1.0059,                                 !- Year Escalation 8
  1.0089,                                 !- Year Escalation 9
  1.0119,                                 !- Year Escalation 10
  1.0148,                                 !- Year Escalation 11
  1.0178,                                 !- Year Escalation 12
  1.0208,                                 !- Year Escalation 13
  1.0267,                                 !- Year Escalation 14
  1.0297,                                 !- Year Escalation 15
  1.0356,                                 !- Year Escalation 16
  1.0415,                                 !- Year Escalation 17
  1.0534,                                 !- Year Escalation 18
  1.0564,                                 !- Year Escalation 19
  1.0593,                                 !- Year Escalation 20
  1.0653,                                 !- Year Escalation 21
  1.0712,                                 !- Year Escalation 22
  1.0742,                                 !- Year Escalation 23
  1.0801,                                 !- Year Escalation 24
  1.0831,                                 !- Year Escalation 25
  1.0831,                                 !- Year Escalation 26
  1.0861,                                 !- Year Escalation 27
  1.0890,                                 !- Year Escalation 28
  1.0920,                                 !- Year Escalation 29
  1.0950;                                 !- Year Escalation 30

Building,
  L shape,                                !- Name
  ,                                       !- North Axis {deg}
  ,                                       !- Terrain
  ,                                       !- Loads Convergence Tolerance Value
  ,                                       !- Temperature Convergence Tolerance Value {deltaC}
  ,                                       !- Solar Distribution
  ,                                       !- Maximum Number of Warmup Days
  ;                                       !- Minimum Number of Warmup Days

Shading:Building:Detailed,
  Box shape,                              !- Name
  ,                                       !- Transmittance Schedule Name
  ,                                       !- Number of Vertices
  -260.6695, 141.4324, 0,                 !- X,Y,Z Vertex 1 {m}
  -53.8636, 141.4324, 0,                  !- X,Y,Z Vertex 2 {m}
  -53.8636, 141.4324, 255,                !- X,Y,Z Vertex 3 {m}
  -260.6695, 141.4324, 255;               !- X,Y,Z Vertex 4 {m}

Shading:Building:Detailed,
  H shape,                                !- Name
  ,                                       !- Transmittance Schedule Name
  ,                                       !- Number of Vertices
  -260.6695, -98.5676, 0,                 !- X,Y,Z Vertex 1 {m}
  -53.8636, -98.5676, 0,                  !- X,Y,Z Vertex 2 {m}
  -53.8636, -98.5676, 255,                !- X,Y,Z Vertex 3 {m}
  -260.6695, -98.5676, 255;               !- X,Y,Z Vertex 4 {m}

Shading:Building:Detailed,
  O shape,                                !- Name
  ,                                       !- Transmittance Schedule Name
  ,                                       !- Number of Vertices
  219.3305, -338.5676, 0,                 !- X,Y,Z Vertex 1 {m}
  426.1364, -338.5676, 0,                 !- X,Y,Z Vertex 2 {m}
  426.1364, -338.5676, 255,               !- X,Y,Z Vertex 3 {m}
  219.3305, -338.5676, 255;               !- X,Y,Z Vertex 4 {m}

Shading:Building:Detailed,
  overhang-floor-1-space-1,               !- Name
  ,                                       !- Transmittance Schedule Name
  ,                                       !- Number of Vertices
  1.0918, 216.9133, 11.7,                 !- X,Y,Z Vertex 1 {m}
  61.8799, 178.9287, 11.7,                !- X,Y,Z Vertex 2 {m}
  63.9996, 182.3209, 11.7,                !- X,Y,Z Vertex 3 {m}
  3.2115, 220.3055, 11.7;                 !- X,Y,Z Vertex 4 {m}

Shading:Building:Detailed,
  overhang-floor-1-space-2,               !- Name
  ,                                       !- Transmittance Schedule Name
  ,                                       !- Number of Vertices
  97.7626, 175.6645, 11.7,                !- X,Y,Z Vertex 1 {m}
  114.2819, 202.101, 11.7,                !- X,Y,Z Vertex 2 {m}
  110.8897, 204.2207, 11.7,               !- X,Y,Z Vertex 3 {m}
  94.3704, 177.7842, 11.7;                !- X,Y,Z Vertex 4 {m}

Shading:Building:Detailed,
  overhang-floor-1-space-3,               !- Name
  ,                                       !- Transmittance Schedule Name
  ,                                       !- Number of Vertices
  110.3572, 223.7111, 11.7,               !- X,Y,Z Vertex 1 {m}
  87.0868, 238.2521, 11.7,                !- X,Y,Z Vertex 2 {m}
  84.9671, 234.8599, 11.7,                !- X,Y,Z Vertex 3 {m}
  108.2375, 220.3189, 11.7;               !- X,Y,Z Vertex 4 {m}

Shading:Building:Detailed,
  overhang-floor-1-space-4,               !- Name
  ,                                       !- Transmittance Schedule Name
  ,                                       !- Number of Vertices
  85.2019, 248.0301, 11.7,                !- X,Y,Z Vertex 1 {m}
  100.4353, 272.4086, 11.7,               !- X,Y,Z Vertex 2 {m}
  97.0431, 274.5283, 11.7,                !- X,Y,Z Vertex 3 {m}
  81.8097, 250.1497, 11.7;                !- X,Y,Z Vertex 4 {m}

Shading:Building:Detailed,
  overhang-floor-1-space-5,               !- Name
  ,                                       !- Transmittance Schedule Name
  ,                                       !- Number of Vertices
  90.4083, 296.7078, 11.7,                !- X,Y,Z Vertex 1 {m}
  52.8906, 320.1514, 11.7,                !- X,Y,Z Vertex 2 {m}
  50.7709, 316.7592, 11.7,                !- X,Y,Z Vertex 3 {m}
  88.2886, 293.3156, 11.7;                !- X,Y,Z Vertex 4 {m}

Shading:Building:Detailed,
  overhang-floor-1-space-6,               !- Name
  ,                                       !- Transmittance Schedule Name
  ,                                       !- Number of Vertices
  20.1654, 308.1258, 11.7,                !- X,Y,Z Vertex 1 {m}
  -11.5874, 257.3108, 11.7,               !- X,Y,Z Vertex 2 {m}
  -8.1952, 255.1911, 11.7,                !- X,Y,Z Vertex 3 {m}
  23.5576, 306.0062, 11.7;                !- X,Y,Z Vertex 4 {m}

Shading:Building:Detailed,
  overhang-floor-10-space-1,              !- Name
  ,                                       !- Transmittance Schedule Name
  ,                                       !- Number of Vertices
  1.0918, 216.9133, 146.7,                !- X,Y,Z Vertex 1 {m}
  61.8799, 178.9287, 146.7,               !- X,Y,Z Vertex 2 {m}
  63.9996, 182.3209, 146.7,               !- X,Y,Z Vertex 3 {m}
  3.2115, 220.3055, 146.7;                !- X,Y,Z Vertex 4 {m}

Shading:Building:Detailed,
  overhang-floor-10-space-2,              !- Name
  ,                                       !- Transmittance Schedule Name
  ,                                       !- Number of Vertices
  97.7626, 175.6645, 146.7,               !- X,Y,Z Vertex 1 {m}
  114.2819, 202.101, 146.7,               !- X,Y,Z Vertex 2 {m}
  110.8897, 204.2207, 146.7,              !- X,Y,Z Vertex 3 {m}
  94.3704, 177.7842, 146.7;               !- X,Y,Z Vertex 4 {m}

Shading:Building:Detailed,
  overhang-floor-10-space-3,              !- Name
  ,                                       !- Transmittance Schedule Name
  ,                                       !- Number of Vertices
  110.3572, 223.7111, 146.7,              !- X,Y,Z Vertex 1 {m}
  87.0868, 238.2521, 146.7,               !- X,Y,Z Vertex 2 {m}
  84.9671, 234.8599, 146.7,               !- X,Y,Z Vertex 3 {m}
  108.2375, 220.3189, 146.7;              !- X,Y,Z Vertex 4 {m}

Shading:Building:Detailed,
  overhang-floor-10-space-4,              !- Name
  ,                                       !- Transmittance Schedule Name
  ,                                       !- Number of Vertices
  85.2019, 248.0301, 146.7,               !- X,Y,Z Vertex 1 {m}
  100.4353, 272.4086, 146.7,              !- X,Y,Z Vertex 2 {m}
  97.0431, 274.5283, 146.7,               !- X,Y,Z Vertex 3 {m}
  81.8097, 250.1497, 146.7;               !- X,Y,Z Vertex 4 {m}

Shading:Building:Detailed,
  overhang-floor-10-space-5,              !- Name
  ,                                       !- Transmittance Schedule Name
  ,                                       !- Number of Vertices
  90.4083, 296.7078, 146.7,               !- X,Y,Z Vertex 1 {m}
  52.8906, 320.1514, 146.7,               !- X,Y,Z Vertex 2 {m}
  50.7709, 316.7592, 146.7,               !- X,Y,Z Vertex 3 {m}
  88.2886, 293.3156, 146.7;               !- X,Y,Z Vertex 4 {m}

Shading:Building:Detailed,
  overhang-floor-10-space-6,              !- Name
  ,                                       !- Transmittance Schedule Name
  ,                                       !- Number of Vertices
  20.1654, 308.1258, 146.7,               !- X,Y,Z Vertex 1 {m}
  -11.5874, 257.3108, 146.7,              !- X,Y,Z Vertex 2 {m}
  -8.1952, 255.1911, 146.7,               !- X,Y,Z Vertex 3 {m}
  23.5576, 306.0062, 146.7;               !- X,Y,Z Vertex 4 {m}

Shading:Building:Detailed,
  overhang-floor-11-space-1,              !- Name
  ,                                       !- Transmittance Schedule Name
  ,                                       !- Number of Vertices
  1.0918, 216.9133, 161.7,                !- X,Y,Z Vertex 1 {m}
  61.8799, 178.9287, 161.7,               !- X,Y,Z Vertex 2 {m}
  63.9996, 182.3209, 161.7,               !- X,Y,Z Vertex 3 {m}
  3.2115, 220.3055, 161.7;                !- X,Y,Z Vertex 4 {m}

Shading:Building:Detailed,
  overhang-floor-11-space-2,              !- Name
  ,                                       !- Transmittance Schedule Name
  ,                                       !- Number of Vertices
  97.7626, 175.6645, 161.7,               !- X,Y,Z Vertex 1 {m}
  114.2819, 202.101, 161.7,               !- X,Y,Z Vertex 2 {m}
  110.8897, 204.2207, 161.7,              !- X,Y,Z Vertex 3 {m}
  94.3704, 177.7842, 161.7;               !- X,Y,Z Vertex 4 {m}

Shading:Building:Detailed,
  overhang-floor-11-space-3,              !- Name
  ,                                       !- Transmittance Schedule Name
  ,                                       !- Number of Vertices
  110.3572, 223.7111, 161.7,              !- X,Y,Z Vertex 1 {m}
  87.0868, 238.2521, 161.7,               !- X,Y,Z Vertex 2 {m}
  84.9671, 234.8599, 161.7,               !- X,Y,Z Vertex 3 {m}
  108.2375, 220.3189, 161.7;              !- X,Y,Z Vertex 4 {m}

Shading:Building:Detailed,
  overhang-floor-11-space-4,              !- Name
  ,                                       !- Transmittance Schedule Name
  ,                                       !- Number of Vertices
  85.2019, 248.0301, 161.7,               !- X,Y,Z Vertex 1 {m}
  100.4353, 272.4086, 161.7,              !- X,Y,Z Vertex 2 {m}
  97.0431, 274.5283, 161.7,               !- X,Y,Z Vertex 3 {m}
  81.8097, 250.1497, 161.7;               !- X,Y,Z Vertex 4 {m}

Shading:Building:Detailed,
  overhang-floor-11-space-5,              !- Name
  ,                                       !- Transmittance Schedule Name
  ,                                       !- Number of Vertices
  90.4083, 296.7078, 161.7,               !- X,Y,Z Vertex 1 {m}
  52.8906, 320.1514, 161.7,               !- X,Y,Z Vertex 2 {m}
  50.7709, 316.7592, 161.7,               !- X,Y,Z Vertex 3 {m}
  88.2886, 293.3156, 161.7;               !- X,Y,Z Vertex 4 {m}

Shading:Building:Detailed,
  overhang-floor-11-space-6,              !- Name
  ,                                       !- Transmittance Schedule Name
  ,                                       !- Number of Vertices
  20.1654, 308.1258, 161.7,               !- X,Y,Z Vertex 1 {m}
  -11.5874, 257.3108, 161.7,              !- X,Y,Z Vertex 2 {m}
  -8.1952, 255.1911, 161.7,               !- X,Y,Z Vertex 3 {m}
  23.5576, 306.0062, 161.7;               !- X,Y,Z Vertex 4 {m}

Shading:Building:Detailed,
  overhang-floor-12-space-1,              !- Name
  ,                                       !- Transmittance Schedule Name
  ,                                       !- Number of Vertices
  1.0918, 216.9133, 176.7,                !- X,Y,Z Vertex 1 {m}
  61.8799, 178.9287, 176.7,               !- X,Y,Z Vertex 2 {m}
  63.9996, 182.3209, 176.7,               !- X,Y,Z Vertex 3 {m}
  3.2115, 220.3055, 176.7;                !- X,Y,Z Vertex 4 {m}

Shading:Building:Detailed,
  overhang-floor-12-space-2,              !- Name
  ,                                       !- Transmittance Schedule Name
  ,                                       !- Number of Vertices
  97.7626, 175.6645, 176.7,               !- X,Y,Z Vertex 1 {m}
  114.2819, 202.101, 176.7,               !- X,Y,Z Vertex 2 {m}
  110.8897, 204.2207, 176.7,              !- X,Y,Z Vertex 3 {m}
  94.3704, 177.7842, 176.7;               !- X,Y,Z Vertex 4 {m}

Shading:Building:Detailed,
  overhang-floor-12-space-3,              !- Name
  ,                                       !- Transmittance Schedule Name
  ,                                       !- Number of Vertices
  110.3572, 223.7111, 176.7,              !- X,Y,Z Vertex 1 {m}
  87.0868, 238.2521, 176.7,               !- X,Y,Z Vertex 2 {m}
  84.9671, 234.8599, 176.7,               !- X,Y,Z Vertex 3 {m}
  108.2375, 220.3189, 176.7;              !- X,Y,Z Vertex 4 {m}

Shading:Building:Detailed,
  overhang-floor-12-space-4,              !- Name
  ,                                       !- Transmittance Schedule Name
  ,                                       !- Number of Vertices
  85.2019, 248.0301, 176.7,               !- X,Y,Z Vertex 1 {m}
  100.4353, 272.4086, 176.7,              !- X,Y,Z Vertex 2 {m}
  97.0431, 274.5283, 176.7,               !- X,Y,Z Vertex 3 {m}
  81.8097, 250.1497, 176.7;               !- X,Y,Z Vertex 4 {m}

Shading:Building:Detailed,
  overhang-floor-12-space-5,              !- Name
  ,                                       !- Transmittance Schedule Name
  ,                                       !- Number of Vertices
  90.4083, 296.7078, 176.7,               !- X,Y,Z Vertex 1 {m}
  52.8906, 320.1514, 176.7,               !- X,Y,Z Vertex 2 {m}
  50.7709, 316.7592, 176.7,               !- X,Y,Z Vertex 3 {m}
  88.2886, 293.3156, 176.7;               !- X,Y,Z Vertex 4 {m}

Shading:Building:Detailed,
  overhang-floor-12-space-6,              !- Name
  ,                                       !- Transmittance Schedule Name
  ,                                       !- Number of Vertices
  20.1654, 308.1258, 176.7,               !- X,Y,Z Vertex 1 {m}
  -11.5874, 257.3108, 176.7,              !- X,Y,Z Vertex 2 {m}
  -8.1952, 255.1911, 176.7,               !- X,Y,Z Vertex 3 {m}
  23.5576, 306.0062, 176.7;               !- X,Y,Z Vertex 4 {m}

Shading:Building:Detailed,
  overhang-floor-13-space-1,              !- Name
  ,                                       !- Transmittance Schedule Name
  ,                                       !- Number of Vertices
  1.0918, 216.9133, 191.7,                !- X,Y,Z Vertex 1 {m}
  61.8799, 178.9287, 191.7,               !- X,Y,Z Vertex 2 {m}
  63.9996, 182.3209, 191.7,               !- X,Y,Z Vertex 3 {m}
  3.2115, 220.3055, 191.7;                !- X,Y,Z Vertex 4 {m}

Shading:Building:Detailed,
  overhang-floor-13-space-2,              !- Name
  ,                                       !- Transmittance Schedule Name
  ,                                       !- Number of Vertices
  97.7626, 175.6645, 191.7,               !- X,Y,Z Vertex 1 {m}
  114.2819, 202.101, 191.7,               !- X,Y,Z Vertex 2 {m}
  110.8897, 204.2207, 191.7,              !- X,Y,Z Vertex 3 {m}
  94.3704, 177.7842, 191.7;               !- X,Y,Z Vertex 4 {m}

Shading:Building:Detailed,
  overhang-floor-13-space-3,              !- Name
  ,                                       !- Transmittance Schedule Name
  ,                                       !- Number of Vertices
  110.3572, 223.7111, 191.7,              !- X,Y,Z Vertex 1 {m}
  87.0868, 238.2521, 191.7,               !- X,Y,Z Vertex 2 {m}
  84.9671, 234.8599, 191.7,               !- X,Y,Z Vertex 3 {m}
  108.2375, 220.3189, 191.7;              !- X,Y,Z Vertex 4 {m}

Shading:Building:Detailed,
  overhang-floor-13-space-4,              !- Name
  ,                                       !- Transmittance Schedule Name
  ,                                       !- Number of Vertices
  85.2019, 248.0301, 191.7,               !- X,Y,Z Vertex 1 {m}
  100.4353, 272.4086, 191.7,              !- X,Y,Z Vertex 2 {m}
  97.0431, 274.5283, 191.7,               !- X,Y,Z Vertex 3 {m}
  81.8097, 250.1497, 191.7;               !- X,Y,Z Vertex 4 {m}

Shading:Building:Detailed,
  overhang-floor-13-space-5,              !- Name
  ,                                       !- Transmittance Schedule Name
  ,                                       !- Number of Vertices
  90.4083, 296.7078, 191.7,               !- X,Y,Z Vertex 1 {m}
  52.8906, 320.1514, 191.7,               !- X,Y,Z Vertex 2 {m}
  50.7709, 316.7592, 191.7,               !- X,Y,Z Vertex 3 {m}
  88.2886, 293.3156, 191.7;               !- X,Y,Z Vertex 4 {m}

Shading:Building:Detailed,
  overhang-floor-13-space-6,              !- Name
  ,                                       !- Transmittance Schedule Name
  ,                                       !- Number of Vertices
  20.1654, 308.1258, 191.7,               !- X,Y,Z Vertex 1 {m}
  -11.5874, 257.3108, 191.7,              !- X,Y,Z Vertex 2 {m}
  -8.1952, 255.1911, 191.7,               !- X,Y,Z Vertex 3 {m}
  23.5576, 306.0062, 191.7;               !- X,Y,Z Vertex 4 {m}

Shading:Building:Detailed,
  overhang-floor-14-space-1,              !- Name
  ,                                       !- Transmittance Schedule Name
  ,                                       !- Number of Vertices
  1.0918, 216.9133, 206.7,                !- X,Y,Z Vertex 1 {m}
  61.8799, 178.9287, 206.7,               !- X,Y,Z Vertex 2 {m}
  63.9996, 182.3209, 206.7,               !- X,Y,Z Vertex 3 {m}
  3.2115, 220.3055, 206.7;                !- X,Y,Z Vertex 4 {m}

Shading:Building:Detailed,
  overhang-floor-14-space-2,              !- Name
  ,                                       !- Transmittance Schedule Name
  ,                                       !- Number of Vertices
  97.7626, 175.6645, 206.7,               !- X,Y,Z Vertex 1 {m}
  114.2819, 202.101, 206.7,               !- X,Y,Z Vertex 2 {m}
  110.8897, 204.2207, 206.7,              !- X,Y,Z Vertex 3 {m}
  94.3704, 177.7842, 206.7;               !- X,Y,Z Vertex 4 {m}

Shading:Building:Detailed,
  overhang-floor-14-space-3,              !- Name
  ,                                       !- Transmittance Schedule Name
  ,                                       !- Number of Vertices
  110.3572, 223.7111, 206.7,              !- X,Y,Z Vertex 1 {m}
  87.0868, 238.2521, 206.7,               !- X,Y,Z Vertex 2 {m}
  84.9671, 234.8599, 206.7,               !- X,Y,Z Vertex 3 {m}
  108.2375, 220.3189, 206.7;              !- X,Y,Z Vertex 4 {m}

Shading:Building:Detailed,
  overhang-floor-14-space-4,              !- Name
  ,                                       !- Transmittance Schedule Name
  ,                                       !- Number of Vertices
  85.2019, 248.0301, 206.7,               !- X,Y,Z Vertex 1 {m}
  100.4353, 272.4086, 206.7,              !- X,Y,Z Vertex 2 {m}
  97.0431, 274.5283, 206.7,               !- X,Y,Z Vertex 3 {m}
  81.8097, 250.1497, 206.7;               !- X,Y,Z Vertex 4 {m}

Shading:Building:Detailed,