
OS:Version,
  {b5ef6411-5792-4047-9d38-8c2df88069da}, !- Handle
  2.3.0;                                  !- Version Identifier

OS:ThermalZone,
  {7864362c-4828-47dd-ab86-46cbf4170a8f}, !- Handle
  Floor: 1 Zone: 1,                       !- Name
  ,                                       !- Multiplier
  ,                                       !- Ceiling Height {m}
  ,                                       !- Volume {m3}
  ,                                       !- Floor Area {m2}
  ,                                       !- Zone Inside Convection Algorithm
  ,                                       !- Zone Outside Convection Algorithm
  ,                                       !- Zone Conditioning Equipment List Name
  {b699803e-8e89-4c58-ade4-8bf19301b74e}, !- Zone Air Inlet Port List
  {3a83aef5-6a7f-40dd-86b1-eabfa9ed97fe}, !- Zone Air Exhaust Port List
  {fbeb2080-7aec-4908-9c94-0bdf81dbaeef}, !- Zone Air Node Name
  ,                                       !- Zone Return Air Node Name
  ,                                       !- Primary Daylighting Control Name
  ,                                       !- Fraction of Zone Controlled by Primary Daylighting Control
  ,                                       !- Secondary Daylighting Control Name
  ,                                       !- Fraction of Zone Controlled by Secondary Daylighting Control
  ,                                       !- Illuminance Map Name
  ,                                       !- Group Rendering Name
  ,                                       !- Thermostat Name
  No;                                     !- Use Ideal Air Loads

OS:Node,
  {c5b1906c-d526-48b2-879d-8391e69e71af}, !- Handle
  {332290ea-ae3a-4ebc-a719-83941ed36b81}, !- Name
  {fbeb2080-7aec-4908-9c94-0bdf81dbaeef}, !- Inlet Port
  ;                                       !- Outlet Port

OS:Connection,
  {fbeb2080-7aec-4908-9c94-0bdf81dbaeef}, !- Handle
  {34be2e46-f7b4-4fbf-a5ac-13763e53de3e}, !- Name
  {7864362c-4828-47dd-ab86-46cbf4170a8f}, !- Source Object
  11,                                     !- Outlet Port
  {c5b1906c-d526-48b2-879d-8391e69e71af}, !- Target Object
  2;                                      !- Inlet Port

OS:PortList,
  {b699803e-8e89-4c58-ade4-8bf19301b74e}, !- Handle
  {1167126a-a9da-40cb-ab10-a77167151196}, !- Name
  {7864362c-4828-47dd-ab86-46cbf4170a8f}; !- HVAC Component

OS:PortList,
  {3a83aef5-6a7f-40dd-86b1-eabfa9ed97fe}, !- Handle
  {7223cba0-dd7b-4704-be1f-d0bc4c4ab65a}, !- Name
  {7864362c-4828-47dd-ab86-46cbf4170a8f}; !- HVAC Component

OS:Sizing:Zone,
  {375f9280-cfc2-4012-99bf-e73fa36d3372}, !- Handle
  {7864362c-4828-47dd-ab86-46cbf4170a8f}, !- Zone or ZoneList Name
  SupplyAirTemperature,                   !- Zone Cooling Design Supply Air Temperature Input Method
  14,                                     !- Zone Cooling Design Supply Air Temperature {C}
  11.11,                                  !- Zone Cooling Design Supply Air Temperature Difference {deltaC}
  SupplyAirTemperature,                   !- Zone Heating Design Supply Air Temperature Input Method
  40,                                     !- Zone Heating Design Supply Air Temperature {C}
  11.11,                                  !- Zone Heating Design Supply Air Temperature Difference {deltaC}
  0.0085,                                 !- Zone Cooling Design Supply Air Humidity Ratio {kg-H2O/kg-air}
  0.008,                                  !- Zone Heating Design Supply Air Humidity Ratio {kg-H2O/kg-air}
  ,                                       !- Zone Heating Sizing Factor
  ,                                       !- Zone Cooling Sizing Factor
  DesignDay,                              !- Cooling Design Air Flow Method
  ,                                       !- Cooling Design Air Flow Rate {m3/s}
  ,                                       !- Cooling Minimum Air Flow per Zone Floor Area {m3/s-m2}
  ,                                       !- Cooling Minimum Air Flow {m3/s}
  ,                                       !- Cooling Minimum Air Flow Fraction
  DesignDay,                              !- Heating Design Air Flow Method
  ,                                       !- Heating Design Air Flow Rate {m3/s}
  ,                                       !- Heating Maximum Air Flow per Zone Floor Area {m3/s-m2}
  ,                                       !- Heating Maximum Air Flow {m3/s}
  ,                                       !- Heating Maximum Air Flow Fraction
  ,                                       !- Design Zone Air Distribution Effectiveness in Cooling Mode
  ,                                       !- Design Zone Air Distribution Effectiveness in Heating Mode
  No,                                     !- Account for Dedicated Outdoor Air System
  NeutralSupplyAir,                       !- Dedicated Outdoor Air System Control Strategy
  autosize,                               !- Dedicated Outdoor Air Low Setpoint Temperature for Design {C}
  autosize;                               !- Dedicated Outdoor Air High Setpoint Temperature for Design {C}

OS:ZoneHVAC:EquipmentList,
  {36b66d96-45fe-4aaa-8269-9ff34e4c946f}, !- Handle
  {17af7aac-40a1-4623-ab24-c81909fdf01c}, !- Name
  {7864362c-4828-47dd-ab86-46cbf4170a8f}; !- Thermal Zone

OS:ThermalZone,
  {de7018ab-2c4d-4e98-937d-c0ede01878a9}, !- Handle
  Floor: 1 Zone: 2,                       !- Name
  ,                                       !- Multiplier
  ,                                       !- Ceiling Height {m}
  ,                                       !- Volume {m3}
  ,                                       !- Floor Area {m2}
  ,                                       !- Zone Inside Convection Algorithm
  ,                                       !- Zone Outside Convection Algorithm
  ,                                       !- Zone Conditioning Equipment List Name
  {2d3b272a-5a1f-41ad-8025-8be406aef0a8}, !- Zone Air Inlet Port List
  {c0a1c18e-f7fd-4068-8f9b-114e923e6891}, !- Zone Air Exhaust Port List
  {e5b1bbf3-05eb-4c00-b460-1fa97c6ef83c}, !- Zone Air Node Name
  ,                                       !- Zone Return Air Node Name
  ,                                       !- Primary Daylighting Control Name
  ,                                       !- Fraction of Zone Controlled by Primary Daylighting Control
  ,                                       !- Secondary Daylighting Control Name
  ,                                       !- Fraction of Zone Controlled by Secondary Daylighting Control
  ,                                       !- Illuminance Map Name
  ,                                       !- Group Rendering Name
  ,                                       !- Thermostat Name
  No;                                     !- Use Ideal Air Loads

OS:Node,
  {cb4b4caf-935a-451e-9b62-f893f114b414}, !- Handle
  {40247319-5f92-4e84-a2da-1b0e0dfeb9d6}, !- Name
  {e5b1bbf3-05eb-4c00-b460-1fa97c6ef83c}, !- Inlet Port
  ;                                       !- Outlet Port

OS:Connection,
  {e5b1bbf3-05eb-4c00-b460-1fa97c6ef83c}, !- Handle
  {cfdc4011-4a85-42e3-9ea5-3c3e9c67b423}, !- Name
  {de7018ab-2c4d-4e98-937d-c0ede01878a9}, !- Source Object
  11,                                     !- Outlet Port
  {cb4b4caf-935a-451e-9b62-f893f114b414}, !- Target Object
  2;                                      !- Inlet Port

OS:PortList,
  {2d3b272a-5a1f-41ad-8025-8be406aef0a8}, !- Handle
  {72f68df1-961f-4918-b5bc-d2b29a98199b}, !- Name
  {de7018ab-2c4d-4e98-937d-c0ede01878a9}; !- HVAC Component

OS:PortList,
  {c0a1c18e-f7fd-4068-8f9b-114e923e6891}, !- Handle
  {7a4c4396-6079-4a42-9df6-44746ff3a27f}, !- Name
  {de7018ab-2c4d-4e98-937d-c0ede01878a9}; !- HVAC Component

OS:Sizing:Zone,
  {592df361-d44d-4e6a-b111-978d4ac74e33}, !- Handle
  {de7018ab-2c4d-4e98-937d-c0ede01878a9}, !- Zone or ZoneList Name
  SupplyAirTemperature,                   !- Zone Cooling Design Supply Air Temperature Input Method
  14,                                     !- Zone Cooling Design Supply Air Temperature {C}
  11.11,                                  !- Zone Cooling Design Supply Air Temperature Difference {deltaC}
  SupplyAirTemperature,                   !- Zone Heating Design Supply Air Temperature Input Method
  40,                                     !- Zone Heating Design Supply Air Temperature {C}
  11.11,                                  !- Zone Heating Design Supply Air Temperature Difference {deltaC}
  0.0085,                                 !- Zone Cooling Design Supply Air Humidity Ratio {kg-H2O/kg-air}
  0.008,                                  !- Zone Heating Design Supply Air Humidity Ratio {kg-H2O/kg-air}
  ,                                       !- Zone Heating Sizing Factor
  ,                                       !- Zone Cooling Sizing Factor
  DesignDay,                              !- Cooling Design Air Flow Method
  ,                                       !- Cooling Design Air Flow Rate {m3/s}
  ,                                       !- Cooling Minimum Air Flow per Zone Floor Area {m3/s-m2}
  ,                                       !- Cooling Minimum Air Flow {m3/s}
  ,                                       !- Cooling Minimum Air Flow Fraction
  DesignDay,                              !- Heating Design Air Flow Method
  ,                                       !- Heating Design Air Flow Rate {m3/s}
  ,                                       !- Heating Maximum Air Flow per Zone Floor Area {m3/s-m2}
  ,                                       !- Heating Maximum Air Flow {m3/s}
  ,                                       !- Heating Maximum Air Flow Fraction
  ,                                       !- Design Zone Air Distribution Effectiveness in Cooling Mode
  ,                                       !- Design Zone Air Distribution Effectiveness in Heating Mode
  No,                                     !- Account for Dedicated Outdoor Air System
  NeutralSupplyAir,                       !- Dedicated Outdoor Air System Control Strategy
  autosize,                               !- Dedicated Outdoor Air Low Setpoint Temperature for Design {C}
  autosize;                               !- Dedicated Outdoor Air High Setpoint Temperature for Design {C}

OS:ZoneHVAC:EquipmentList,
  {69b1b520-390a-4cc4-8266-2c0199a5a86f}, !- Handle
  {cb5296d6-7f30-455d-8c8b-a8705af5205a}, !- Name
  {de7018ab-2c4d-4e98-937d-c0ede01878a9}; !- Thermal Zone

OS:ThermalZone,
  {63263217-b7fa-440a-a43e-f8cfcbc08e44}, !- Handle
  Floor: 1 Zone: 3,                       !- Name
  ,                                       !- Multiplier
  ,                                       !- Ceiling Height {m}
  ,                                       !- Volume {m3}
  ,                                       !- Floor Area {m2}
  ,                                       !- Zone Inside Convection Algorithm
  ,                                       !- Zone Outside Convection Algorithm
  ,                                       !- Zone Conditioning Equipment List Name
  {9180852f-b464-4752-9386-e5af479fba76}, !- Zone Air Inlet Port List
  {f2393044-0ced-4dd2-aeb5-3742ca1fc8a2}, !- Zone Air Exhaust Port List
  {0fafb75d-9d47-44d9-a5c7-d2bfbcaa797b}, !- Zone Air Node Name
  ,                                       !- Zone Return Air Node Name
  ,                                       !- Primary Daylighting Control Name
  ,                                       !- Fraction of Zone Controlled by Primary Daylighting Control
  ,                                       !- Secondary Daylighting Control Name
  ,                                       !- Fraction of Zone Controlled by Secondary Daylighting Control
  ,                                       !- Illuminance Map Name
  ,                                       !- Group Rendering Name
  ,                                       !- Thermostat Name
  No;                                     !- Use Ideal Air Loads

OS:Node,
  {0c406a74-5f2c-422c-9cac-ef4c22ccfac7}, !- Handle
  {c129e249-de2d-40f4-920a-adf433fba0d4}, !- Name
  {0fafb75d-9d47-44d9-a5c7-d2bfbcaa797b}, !- Inlet Port
  ;                                       !- Outlet Port

OS:Connection,
  {0fafb75d-9d47-44d9-a5c7-d2bfbcaa797b}, !- Handle
  {36746dc1-7cd8-4287-846e-150c8b0d7c1a}, !- Name
  {63263217-b7fa-440a-a43e-f8cfcbc08e44}, !- Source Object
  11,                                     !- Outlet Port
  {0c406a74-5f2c-422c-9cac-ef4c22ccfac7}, !- Target Object
  2;                                      !- Inlet Port

OS:PortList,
  {9180852f-b464-4752-9386-e5af479fba76}, !- Handle
  {c7336992-6730-4294-8faf-7c253151ea6f}, !- Name
  {63263217-b7fa-440a-a43e-f8cfcbc08e44}; !- HVAC Component

OS:PortList,
  {f2393044-0ced-4dd2-aeb5-3742ca1fc8a2}, !- Handle
  {f1b2c84c-60c6-4bce-ace5-ac58e910dffa}, !- Name
  {63263217-b7fa-440a-a43e-f8cfcbc08e44}; !- HVAC Component

OS:Sizing:Zone,
  {5de76ab9-d910-40a5-8340-6326a2fdb5d9}, !- Handle
  {63263217-b7fa-440a-a43e-f8cfcbc08e44}, !- Zone or ZoneList Name
  SupplyAirTemperature,                   !- Zone Cooling Design Supply Air Temperature Input Method
  14,                                     !- Zone Cooling Design Supply Air Temperature {C}
  11.11,                                  !- Zone Cooling Design Supply Air Temperature Difference {deltaC}
  SupplyAirTemperature,                   !- Zone Heating Design Supply Air Temperature Input Method
  40,                                     !- Zone Heating Design Supply Air Temperature {C}
  11.11,                                  !- Zone Heating Design Supply Air Temperature Difference {deltaC}
  0.0085,                                 !- Zone Cooling Design Supply Air Humidity Ratio {kg-H2O/kg-air}
  0.008,                                  !- Zone Heating Design Supply Air Humidity Ratio {kg-H2O/kg-air}
  ,                                       !- Zone Heating Sizing Factor
  ,                                       !- Zone Cooling Sizing Factor
  DesignDay,                              !- Cooling Design Air Flow Method
  ,                                       !- Cooling Design Air Flow Rate {m3/s}
  ,                                       !- Cooling Minimum Air Flow per Zone Floor Area {m3/s-m2}
  ,                                       !- Cooling Minimum Air Flow {m3/s}
  ,                                       !- Cooling Minimum Air Flow Fraction
  DesignDay,                              !- Heating Design Air Flow Method
  ,                                       !- Heating Design Air Flow Rate {m3/s}
  ,                                       !- Heating Maximum Air Flow per Zone Floor Area {m3/s-m2}
  ,                                       !- Heating Maximum Air Flow {m3/s}
  ,                                       !- Heating Maximum Air Flow Fraction
  ,                                       !- Design Zone Air Distribution Effectiveness in Cooling Mode
  ,                                       !- Design Zone Air Distribution Effectiveness in Heating Mode
  No,                                     !- Account for Dedicated Outdoor Air System
  NeutralSupplyAir,                       !- Dedicated Outdoor Air System Control Strategy
  autosize,                               !- Dedicated Outdoor Air Low Setpoint Temperature for Design {C}
  autosize;                               !- Dedicated Outdoor Air High Setpoint Temperature for Design {C}

OS:ZoneHVAC:EquipmentList,
  {61aacc48-1e8b-4552-9051-fddab1b026f4}, !- Handle
  {1bdd2c73-cf8e-48ba-a26e-f6ce67891a59}, !- Name
  {63263217-b7fa-440a-a43e-f8cfcbc08e44}; !- Thermal Zone

OS:ThermalZone,
  {f39eaee2-8b35-4856-b202-114ebaacafe8}, !- Handle
  Floor: 1 Zone: 4,                       !- Name
  ,                                       !- Multiplier
  ,                                       !- Ceiling Height {m}
  ,                                       !- Volume {m3}
  ,                                       !- Floor Area {m2}
  ,                                       !- Zone Inside Convection Algorithm
  ,                                       !- Zone Outside Convection Algorithm
  ,                                       !- Zone Conditioning Equipment List Name
  {e46b47da-f2f3-47b7-b5b7-be4d180e5815}, !- Zone Air Inlet Port List
  {4cda220c-eb9e-4714-8cc0-3701460d14b7}, !- Zone Air Exhaust Port List
  {72736271-a2e9-489d-95da-ea774f045080}, !- Zone Air Node Name
  ,                                       !- Zone Return Air Node Name
  ,                                       !- Primary Daylighting Control Name
  ,                                       !- Fraction of Zone Controlled by Primary Daylighting Control
  ,                                       !- Secondary Daylighting Control Name
  ,                                       !- Fraction of Zone Controlled by Secondary Daylighting Control
  ,                                       !- Illuminance Map Name
  ,                                       !- Group Rendering Name
  ,                                       !- Thermostat Name
  No;                                     !- Use Ideal Air Loads

OS:Node,
  {c01a5369-f511-4144-923d-83efb901b7fe}, !- Handle
  {7c0280de-c0b5-46c9-8519-d188adf013fd}, !- Name
  {72736271-a2e9-489d-95da-ea774f045080}, !- Inlet Port
  ;                                       !- Outlet Port

OS:Connection,
  {72736271-a2e9-489d-95da-ea774f045080}, !- Handle
  {707f9fb9-0943-47ce-8a91-d8df6dc7c20e}, !- Name
  {f39eaee2-8b35-4856-b202-114ebaacafe8}, !- Source Object
  11,                                     !- Outlet Port
  {c01a5369-f511-4144-923d-83efb901b7fe}, !- Target Object
  2;                                      !- Inlet Port

OS:PortList,
  {e46b47da-f2f3-47b7-b5b7-be4d180e5815}, !- Handle
  {35f45367-b0c3-45bb-91fe-a5be5dbc1fb7}, !- Name
  {f39eaee2-8b35-4856-b202-114ebaacafe8}; !- HVAC Component

OS:PortList,
  {4cda220c-eb9e-4714-8cc0-3701460d14b7}, !- Handle
  {3e9ef5ee-0c13-444c-9cb9-c7f91cc559ba}, !- Name
  {f39eaee2-8b35-4856-b202-114ebaacafe8}; !- HVAC Component

OS:Sizing:Zone,
  {d69fb79a-f64f-400a-985d-a50fd0125f01}, !- Handle
  {f39eaee2-8b35-4856-b202-114ebaacafe8}, !- Zone or ZoneList Name
  SupplyAirTemperature,                   !- Zone Cooling Design Supply Air Temperature Input Method
  14,                                     !- Zone Cooling Design Supply Air Temperature {C}
  11.11,                                  !- Zone Cooling Design Supply Air Temperature Difference {deltaC}
  SupplyAirTemperature,                   !- Zone Heating Design Supply Air Temperature Input Method
  40,                                     !- Zone Heating Design Supply Air Temperature {C}
  11.11,                                  !- Zone Heating Design Supply Air Temperature Difference {deltaC}
  0.0085,                                 !- Zone Cooling Design Supply Air Humidity Ratio {kg-H2O/kg-air}
  0.008,                                  !- Zone Heating Design Supply Air Humidity Ratio {kg-H2O/kg-air}
  ,                                       !- Zone Heating Sizing Factor
  ,                                       !- Zone Cooling Sizing Factor
  DesignDay,                              !- Cooling Design Air Flow Method
  ,                                       !- Cooling Design Air Flow Rate {m3/s}
  ,                                       !- Cooling Minimum Air Flow per Zone Floor Area {m3/s-m2}
  ,                                       !- Cooling Minimum Air Flow {m3/s}
  ,                                       !- Cooling Minimum Air Flow Fraction
  DesignDay,                              !- Heating Design Air Flow Method
  ,                                       !- Heating Design Air Flow Rate {m3/s}
  ,                                       !- Heating Maximum Air Flow per Zone Floor Area {m3/s-m2}
  ,                                       !- Heating Maximum Air Flow {m3/s}
  ,                                       !- Heating Maximum Air Flow Fraction
  ,                                       !- Design Zone Air Distribution Effectiveness in Cooling Mode
  ,                                       !- Design Zone Air Distribution Effectiveness in Heating Mode
  No,                                     !- Account for Dedicated Outdoor Air System
  NeutralSupplyAir,                       !- Dedicated Outdoor Air System Control Strategy
  autosize,                               !- Dedicated Outdoor Air Low Setpoint Temperature for Design {C}
  autosize;                               !- Dedicated Outdoor Air High Setpoint Temperature for Design {C}

OS:ZoneHVAC:EquipmentList,
  {47ec55fd-0431-47d3-a547-c81c4a56836e}, !- Handle
  {d4078e35-9ff7-4f04-9110-8e88e583beb3}, !- Name
  {f39eaee2-8b35-4856-b202-114ebaacafe8}; !- Thermal Zone

OS:ThermalZone,
  {927338d5-b139-4f3c-b08d-f6cd3c91cee8}, !- Handle
  Floor: 1 Zone: 5,                       !- Name
  ,                                       !- Multiplier
  ,                                       !- Ceiling Height {m}
  ,                                       !- Volume {m3}
  ,                                       !- Floor Area {m2}
  ,                                       !- Zone Inside Convection Algorithm
  ,                                       !- Zone Outside Convection Algorithm
  ,                                       !- Zone Conditioning Equipment List Name
  {6ca60b2e-ff19-40cb-af87-205c8f0ffab9}, !- Zone Air Inlet Port List
  {115be4c1-7c73-40a0-811f-e8d5e6a5bf7d}, !- Zone Air Exhaust Port List
  {f34d7833-b65e-4bd7-875a-44e4e3df44bc}, !- Zone Air Node Name
  ,                                       !- Zone Return Air Node Name
  ,                                       !- Primary Daylighting Control Name
  ,                                       !- Fraction of Zone Controlled by Primary Daylighting Control
  ,                                       !- Secondary Daylighting Control Name
  ,                                       !- Fraction of Zone Controlled by Secondary Daylighting Control
  ,                                       !- Illuminance Map Name
  ,                                       !- Group Rendering Name
  ,                                       !- Thermostat Name
  No;                                     !- Use Ideal Air Loads

OS:Node,
  {6d0aa550-ad8e-4cd6-b9be-02549f23b1e4}, !- Handle
  {e23aeada-b375-4bc7-b16d-b58f074414fe}, !- Name
  {f34d7833-b65e-4bd7-875a-44e4e3df44bc}, !- Inlet Port
  ;                                       !- Outlet Port

OS:Connection,
  {f34d7833-b65e-4bd7-875a-44e4e3df44bc}, !- Handle
  {cb3110f0-6034-41b7-8c40-58cbd03169ba}, !- Name
  {927338d5-b139-4f3c-b08d-f6cd3c91cee8}, !- Source Object
  11,                                     !- Outlet Port
  {6d0aa550-ad8e-4cd6-b9be-02549f23b1e4}, !- Target Object
  2;                                      !- Inlet Port

OS:PortList,
  {6ca60b2e-ff19-40cb-af87-205c8f0ffab9}, !- Handle
  {309e22d2-21f2-47bd-9006-f84dc905ca91}, !- Name
  {927338d5-b139-4f3c-b08d-f6cd3c91cee8}; !- HVAC Component

OS:PortList,
  {115be4c1-7c73-40a0-811f-e8d5e6a5bf7d}, !- Handle
  {7f443008-0f74-47a4-889a-3124476b8794}, !- Name
  {927338d5-b139-4f3c-b08d-f6cd3c91cee8}; !- HVAC Component

OS:Sizing:Zone,
  {de3ebd7e-6160-4b60-8984-c8ebab30d610}, !- Handle
  {927338d5-b139-4f3c-b08d-f6cd3c91cee8}, !- Zone or ZoneList Name
  SupplyAirTemperature,                   !- Zone Cooling Design Supply Air Temperature Input Method
  14,                                     !- Zone Cooling Design Supply Air Temperature {C}
  11.11,                                  !- Zone Cooling Design Supply Air Temperature Difference {deltaC}
  SupplyAirTemperature,                   !- Zone Heating Design Supply Air Temperature Input Method
  40,                                     !- Zone Heating Design Supply Air Temperature {C}
  11.11,                                  !- Zone Heating Design Supply Air Temperature Difference {deltaC}
  0.0085,                                 !- Zone Cooling Design Supply Air Humidity Ratio {kg-H2O/kg-air}
  0.008,                                  !- Zone Heating Design Supply Air Humidity Ratio {kg-H2O/kg-air}
  ,                                       !- Zone Heating Sizing Factor
  ,                                       !- Zone Cooling Sizing Factor
  DesignDay,                              !- Cooling Design Air Flow Method
  ,                                       !- Cooling Design Air Flow Rate {m3/s}
  ,                                       !- Cooling Minimum Air Flow per Zone Floor Area {m3/s-m2}
  ,                                       !- Cooling Minimum Air Flow {m3/s}
  ,                                       !- Cooling Minimum Air Flow Fraction
  DesignDay,                              !- Heating Design Air Flow Method
  ,                                       !- Heating Design Air Flow Rate {m3/s}
  ,                                       !- Heating Maximum Air Flow per Zone Floor Area {m3/s-m2}
  ,                                       !- Heating Maximum Air Flow {m3/s}
  ,                                       !- Heating Maximum Air Flow Fraction
  ,                                       !- Design Zone Air Distribution Effectiveness in Cooling Mode
  ,                                       !- Design Zone Air Distribution Effectiveness in Heating Mode
  No,                                     !- Account for Dedicated Outdoor Air System
  NeutralSupplyAir,                       !- Dedicated Outdoor Air System Control Strategy
  autosize,                               !- Dedicated Outdoor Air Low Setpoint Temperature for Design {C}
  autosize;                               !- Dedicated Outdoor Air High Setpoint Temperature for Design {C}

OS:ZoneHVAC:EquipmentList,
  {a5072bfe-9e94-462d-b633-da7195043817}, !- Handle
  {98143299-0543-46ba-849b-feb179d1be5d}, !- Name
  {927338d5-b139-4f3c-b08d-f6cd3c91cee8}; !- Thermal Zone

OS:ThermalZone,
  {0ea6eff9-d122-4b35-9f9f-a3697d4ebc89}, !- Handle
  Floor: 1 Zone: 6,                       !- Name
  ,                                       !- Multiplier
  ,                                       !- Ceiling Height {m}
  ,                                       !- Volume {m3}
  ,                                       !- Floor Area {m2}
  ,                                       !- Zone Inside Convection Algorithm
  ,                                       !- Zone Outside Convection Algorithm
  ,                                       !- Zone Conditioning Equipment List Name
  {5f6256ef-e8cf-4f25-83e7-825e8bff1255}, !- Zone Air Inlet Port List
  {a5e19db5-597d-4557-af0f-887116473fe8}, !- Zone Air Exhaust Port List
  {916afeb7-097f-4ef4-aab6-5109dfcd4d8a}, !- Zone Air Node Name
  ,                                       !- Zone Return Air Node Name
  ,                                       !- Primary Daylighting Control Name
  ,                                       !- Fraction of Zone Controlled by Primary Daylighting Control
  ,                                       !- Secondary Daylighting Control Name
  ,                                       !- Fraction of Zone Controlled by Secondary Daylighting Control
  ,                                       !- Illuminance Map Name
  ,                                       !- Group Rendering Name
  ,                                       !- Thermostat Name
  No;                                     !- Use Ideal Air Loads

OS:Node,
  {fc3246aa-aef6-4d4d-af4b-652ba675d064}, !- Handle
  {c382c0da-673f-43d4-81cc-4f37c796ff6a}, !- Name
  {916afeb7-097f-4ef4-aab6-5109dfcd4d8a}, !- Inlet Port
  ;                                       !- Outlet Port

OS:Connection,
  {916afeb7-097f-4ef4-aab6-5109dfcd4d8a}, !- Handle
  {f3210b24-398e-4a98-9c35-801e3799c23e}, !- Name
  {0ea6eff9-d122-4b35-9f9f-a3697d4ebc89}, !- Source Object
  11,                                     !- Outlet Port
  {fc3246aa-aef6-4d4d-af4b-652ba675d064}, !- Target Object
  2;                                      !- Inlet Port

OS:PortList,
  {5f6256ef-e8cf-4f25-83e7-825e8bff1255}, !- Handle
  {72545327-d427-46ea-9e90-3b7ddbf553d2}, !- Name
  {0ea6eff9-d122-4b35-9f9f-a3697d4ebc89}; !- HVAC Component

OS:PortList,
  {a5e19db5-597d-4557-af0f-887116473fe8}, !- Handle
  {0a68b661-e2b4-431a-9961-41e694491d59}, !- Name
  {0ea6eff9-d122-4b35-9f9f-a3697d4ebc89}; !- HVAC Component

OS:Sizing:Zone,
  {750ba30f-5b65-4c1f-8410-1cd3f43112f7}, !- Handle
  {0ea6eff9-d122-4b35-9f9f-a3697d4ebc89}, !- Zone or ZoneList Name
  SupplyAirTemperature,                   !- Zone Cooling Design Supply Air Temperature Input Method
  14,                                     !- Zone Cooling Design Supply Air Temperature {C}
  11.11,                                  !- Zone Cooling Design Supply Air Temperature Difference {deltaC}
  SupplyAirTemperature,                   !- Zone Heating Design Supply Air Temperature Input Method
  40,                                     !- Zone Heating Design Supply Air Temperature {C}
  11.11,                                  !- Zone Heating Design Supply Air Temperature Difference {deltaC}
  0.0085,                                 !- Zone Cooling Design Supply Air Humidity Ratio {kg-H2O/kg-air}
  0.008,                                  !- Zone Heating Design Supply Air Humidity Ratio {kg-H2O/kg-air}
  ,                                       !- Zone Heating Sizing Factor
  ,                                       !- Zone Cooling Sizing Factor
  DesignDay,                              !- Cooling Design Air Flow Method
  ,                                       !- Cooling Design Air Flow Rate {m3/s}
  ,                                       !- Cooling Minimum Air Flow per Zone Floor Area {m3/s-m2}
  ,                                       !- Cooling Minimum Air Flow {m3/s}
  ,                                       !- Cooling Minimum Air Flow Fraction
  DesignDay,                              !- Heating Design Air Flow Method
  ,                                       !- Heating Design Air Flow Rate {m3/s}