
OS:Version,
  {e29ffb72-5b2c-4a0c-9918-579be51aa8b8}, !- Handle
  2.3.0;                                  !- Version Identifier

OS:ThermalZone,
  {f5486ae0-d542-4c34-84b3-35b970ff5b95}, !- Handle
  Floor: 1 Zone: 1,                       !- Name
  ,                                       !- Multiplier
  ,                                       !- Ceiling Height {m}
  ,                                       !- Volume {m3}
  ,                                       !- Floor Area {m2}
  ,                                       !- Zone Inside Convection Algorithm
  ,                                       !- Zone Outside Convection Algorithm
  ,                                       !- Zone Conditioning Equipment List Name
  {101fe927-81ee-462b-ba6c-155d3ee87598}, !- Zone Air Inlet Port List
  {29717745-cef1-4855-9d39-092821ceda83}, !- Zone Air Exhaust Port List
  {d0b49d8d-ddb0-4901-b664-5a24a97481e5}, !- Zone Air Node Name
  ,                                       !- Zone Return Air Node Name
  ,                                       !- Primary Daylighting Control Name
  ,                                       !- Fraction of Zone Controlled by Primary Daylighting Control
  ,                                       !- Secondary Daylighting Control Name
  ,                                       !- Fraction of Zone Controlled by Secondary Daylighting Control
  ,                                       !- Illuminance Map Name
  ,                                       !- Group Rendering Name
  ,                                       !- Thermostat Name
  No;                                     !- Use Ideal Air Loads

OS:Node,
  {93127951-5673-479c-9c14-31d3f72c115a}, !- Handle
  {e76609f5-e76a-4cfe-bcef-e2648c7bdd6b}, !- Name
  {d0b49d8d-ddb0-4901-b664-5a24a97481e5}, !- Inlet Port
  ;                                       !- Outlet Port

OS:Connection,
  {d0b49d8d-ddb0-4901-b664-5a24a97481e5}, !- Handle
  {eb7cb9b6-527b-459b-8e15-c41f14dce56b}, !- Name
  {f5486ae0-d542-4c34-84b3-35b970ff5b95}, !- Source Object
  11,                                     !- Outlet Port
  {93127951-5673-479c-9c14-31d3f72c115a}, !- Target Object
  2;                                      !- Inlet Port

OS:PortList,
  {101fe927-81ee-462b-ba6c-155d3ee87598}, !- Handle
  {c7c7a691-e0c5-4e81-988b-0e478c3aa2e4}, !- Name
  {f5486ae0-d542-4c34-84b3-35b970ff5b95}; !- HVAC Component

OS:PortList,
  {29717745-cef1-4855-9d39-092821ceda83}, !- Handle
  {ce3d4380-cd4b-4835-b72f-9465cb238dad}, !- Name
  {f5486ae0-d542-4c34-84b3-35b970ff5b95}; !- HVAC Component

OS:Sizing:Zone,
  {0466e65f-ca4f-4c31-bad6-f646a7683b8f}, !- Handle
  {f5486ae0-d542-4c34-84b3-35b970ff5b95}, !- Zone or ZoneList Name
  SupplyAirTemperature,                   !- Zone Cooling Design Supply Air Temperature Input Method
  14,                                     !- Zone Cooling Design Supply Air Temperature {C}
  11.11,                                  !- Zone Cooling Design Supply Air Temperature Difference {deltaC}
  SupplyAirTemperature,                   !- Zone Heating Design Supply Air Temperature Input Method
  40,                                     !- Zone Heating Design Supply Air Temperature {C}
  11.11,                                  !- Zone Heating Design Supply Air Temperature Difference {deltaC}
  0.0085,                                 !- Zone Cooling Design Supply Air Humidity Ratio {kg-H2O/kg-air}
  0.008,                                  !- Zone Heating Design Supply Air Humidity Ratio {kg-H2O/kg-air}
  ,                                       !- Zone Heating Sizing Factor
  ,                                       !- Zone Cooling Sizing Factor
  DesignDay,                              !- Cooling Design Air Flow Method
  ,                                       !- Cooling Design Air Flow Rate {m3/s}
  ,                                       !- Cooling Minimum Air Flow per Zone Floor Area {m3/s-m2}
  ,                                       !- Cooling Minimum Air Flow {m3/s}
  ,                                       !- Cooling Minimum Air Flow Fraction
  DesignDay,                              !- Heating Design Air Flow Method
  ,                                       !- Heating Design Air Flow Rate {m3/s}
  ,                                       !- Heating Maximum Air Flow per Zone Floor Area {m3/s-m2}
  ,                                       !- Heating Maximum Air Flow {m3/s}
  ,                                       !- Heating Maximum Air Flow Fraction
  ,                                       !- Design Zone Air Distribution Effectiveness in Cooling Mode
  ,                                       !- Design Zone Air Distribution Effectiveness in Heating Mode
  No,                                     !- Account for Dedicated Outdoor Air System
  NeutralSupplyAir,                       !- Dedicated Outdoor Air System Control Strategy
  autosize,                               !- Dedicated Outdoor Air Low Setpoint Temperature for Design {C}
  autosize;                               !- Dedicated Outdoor Air High Setpoint Temperature for Design {C}

OS:ZoneHVAC:EquipmentList,
  {434ab08d-2562-4f36-a2ab-6b29be0ec804}, !- Handle
  {04590d59-2bfc-454e-8b32-5e6fda476e68}, !- Name
  {f5486ae0-d542-4c34-84b3-35b970ff5b95}; !- Thermal Zone

OS:ThermalZone,
  {5470811c-1c3e-465d-a29f-2b40bcac7674}, !- Handle
  Floor: 1 Zone: 2,                       !- Name
  ,                                       !- Multiplier
  ,                                       !- Ceiling Height {m}
  ,                                       !- Volume {m3}
  ,                                       !- Floor Area {m2}
  ,                                       !- Zone Inside Convection Algorithm
  ,                                       !- Zone Outside Convection Algorithm
  ,                                       !- Zone Conditioning Equipment List Name
  {f2db0685-91c0-4a01-a0a2-3f1f5815d938}, !- Zone Air Inlet Port List
  {7f9f7e73-a76a-41f6-ac9b-d3b06860dfeb}, !- Zone Air Exhaust Port List
  {9e09a23b-e4ea-4890-89ae-76e2494a50f9}, !- Zone Air Node Name
  ,                                       !- Zone Return Air Node Name
  ,                                       !- Primary Daylighting Control Name
  ,                                       !- Fraction of Zone Controlled by Primary Daylighting Control
  ,                                       !- Secondary Daylighting Control Name
  ,                                       !- Fraction of Zone Controlled by Secondary Daylighting Control
  ,                                       !- Illuminance Map Name
  ,                                       !- Group Rendering Name
  ,                                       !- Thermostat Name
  No;                                     !- Use Ideal Air Loads

OS:Node,
  {0e7bf096-dd4d-43bc-b7cf-de0d0d96f781}, !- Handle
  {9f967ec8-ae58-4175-a414-4f427a8365ac}, !- Name
  {9e09a23b-e4ea-4890-89ae-76e2494a50f9}, !- Inlet Port
  ;                                       !- Outlet Port

OS:Connection,
  {9e09a23b-e4ea-4890-89ae-76e2494a50f9}, !- Handle
  {79f3432a-dd23-4a1c-af57-100f4edf95ba}, !- Name
  {5470811c-1c3e-465d-a29f-2b40bcac7674}, !- Source Object
  11,                                     !- Outlet Port
  {0e7bf096-dd4d-43bc-b7cf-de0d0d96f781}, !- Target Object
  2;                                      !- Inlet Port

OS:PortList,
  {f2db0685-91c0-4a01-a0a2-3f1f5815d938}, !- Handle
  {55dedd15-f3fb-438c-8213-eda7864a6e90}, !- Name
  {5470811c-1c3e-465d-a29f-2b40bcac7674}; !- HVAC Component

OS:PortList,
  {7f9f7e73-a76a-41f6-ac9b-d3b06860dfeb}, !- Handle
  {d37f5132-4906-4b6d-ae82-77de35fc02bd}, !- Name
  {5470811c-1c3e-465d-a29f-2b40bcac7674}; !- HVAC Component

OS:Sizing:Zone,
  {93dd6b1a-9c98-49c4-b7c3-a79ab2533b39}, !- Handle
  {5470811c-1c3e-465d-a29f-2b40bcac7674}, !- Zone or ZoneList Name
  SupplyAirTemperature,                   !- Zone Cooling Design Supply Air Temperature Input Method
  14,                                     !- Zone Cooling Design Supply Air Temperature {C}
  11.11,                                  !- Zone Cooling Design Supply Air Temperature Difference {deltaC}
  SupplyAirTemperature,                   !- Zone Heating Design Supply Air Temperature Input Method
  40,                                     !- Zone Heating Design Supply Air Temperature {C}
  11.11,                                  !- Zone Heating Design Supply Air Temperature Difference {deltaC}
  0.0085,                                 !- Zone Cooling Design Supply Air Humidity Ratio {kg-H2O/kg-air}
  0.008,                                  !- Zone Heating Design Supply Air Humidity Ratio {kg-H2O/kg-air}
  ,                                       !- Zone Heating Sizing Factor
  ,                                       !- Zone Cooling Sizing Factor
  DesignDay,                              !- Cooling Design Air Flow Method
  ,                                       !- Cooling Design Air Flow Rate {m3/s}
  ,                                       !- Cooling Minimum Air Flow per Zone Floor Area {m3/s-m2}
  ,                                       !- Cooling Minimum Air Flow {m3/s}
  ,                                       !- Cooling Minimum Air Flow Fraction
  DesignDay,                              !- Heating Design Air Flow Method
  ,                                       !- Heating Design Air Flow Rate {m3/s}
  ,                                       !- Heating Maximum Air Flow per Zone Floor Area {m3/s-m2}
  ,                                       !- Heating Maximum Air Flow {m3/s}
  ,                                       !- Heating Maximum Air Flow Fraction
  ,                                       !- Design Zone Air Distribution Effectiveness in Cooling Mode
  ,                                       !- Design Zone Air Distribution Effectiveness in Heating Mode
  No,                                     !- Account for Dedicated Outdoor Air System
  NeutralSupplyAir,                       !- Dedicated Outdoor Air System Control Strategy
  autosize,                               !- Dedicated Outdoor Air Low Setpoint Temperature for Design {C}
  autosize;                               !- Dedicated Outdoor Air High Setpoint Temperature for Design {C}

OS:ZoneHVAC:EquipmentList,
  {784b059a-5974-4c6c-9ff5-10363271f1e8}, !- Handle
  {59a904c4-af4a-4369-8f72-98ad2f930b05}, !- Name
  {5470811c-1c3e-465d-a29f-2b40bcac7674}; !- Thermal Zone

OS:ThermalZone,
  {565f450a-ac3d-423e-b73e-8e55814deba2}, !- Handle
  Floor: 1 Zone: 3,                       !- Name
  ,                                       !- Multiplier
  ,                                       !- Ceiling Height {m}
  ,                                       !- Volume {m3}
  ,                                       !- Floor Area {m2}
  ,                                       !- Zone Inside Convection Algorithm
  ,                                       !- Zone Outside Convection Algorithm
  ,                                       !- Zone Conditioning Equipment List Name
  {05856762-d5c5-4358-8401-76865189ee1f}, !- Zone Air Inlet Port List
  {6d3fde28-a9ec-4a25-87d1-7f2e3da756b6}, !- Zone Air Exhaust Port List
  {2ec35c56-f9de-453c-96b5-5b27b55a326c}, !- Zone Air Node Name
  ,                                       !- Zone Return Air Node Name
  ,                                       !- Primary Daylighting Control Name
  ,                                       !- Fraction of Zone Controlled by Primary Daylighting Control
  ,                                       !- Secondary Daylighting Control Name
  ,                                       !- Fraction of Zone Controlled by Secondary Daylighting Control
  ,                                       !- Illuminance Map Name
  ,                                       !- Group Rendering Name
  ,                                       !- Thermostat Name
  No;                                     !- Use Ideal Air Loads

OS:Node,
  {79eb09d7-0ea9-4123-b262-6c00b1845eba}, !- Handle
  {c1e36f09-2c8c-416b-a251-0b071e0069bb}, !- Name
  {2ec35c56-f9de-453c-96b5-5b27b55a326c}, !- Inlet Port
  ;                                       !- Outlet Port

OS:Connection,
  {2ec35c56-f9de-453c-96b5-5b27b55a326c}, !- Handle
  {5e2df807-c0ac-41a8-b910-642fb2ece50b}, !- Name
  {565f450a-ac3d-423e-b73e-8e55814deba2}, !- Source Object
  11,                                     !- Outlet Port
  {79eb09d7-0ea9-4123-b262-6c00b1845eba}, !- Target Object
  2;                                      !- Inlet Port

OS:PortList,
  {05856762-d5c5-4358-8401-76865189ee1f}, !- Handle
  {bbb503c6-5c5a-4d68-85c3-e50a8ab794e9}, !- Name
  {565f450a-ac3d-423e-b73e-8e55814deba2}; !- HVAC Component

OS:PortList,
  {6d3fde28-a9ec-4a25-87d1-7f2e3da756b6}, !- Handle
  {87c0ab99-516a-45b5-8e39-66b23e3f8452}, !- Name
  {565f450a-ac3d-423e-b73e-8e55814deba2}; !- HVAC Component

OS:Sizing:Zone,
  {2ba86c9b-309f-47a2-b611-e4f10ee7c408}, !- Handle
  {565f450a-ac3d-423e-b73e-8e55814deba2}, !- Zone or ZoneList Name
  SupplyAirTemperature,                   !- Zone Cooling Design Supply Air Temperature Input Method
  14,                                     !- Zone Cooling Design Supply Air Temperature {C}
  11.11,                                  !- Zone Cooling Design Supply Air Temperature Difference {deltaC}
  SupplyAirTemperature,                   !- Zone Heating Design Supply Air Temperature Input Method
  40,                                     !- Zone Heating Design Supply Air Temperature {C}
  11.11,                                  !- Zone Heating Design Supply Air Temperature Difference {deltaC}
  0.0085,                                 !- Zone Cooling Design Supply Air Humidity Ratio {kg-H2O/kg-air}
  0.008,                                  !- Zone Heating Design Supply Air Humidity Ratio {kg-H2O/kg-air}
  ,                                       !- Zone Heating Sizing Factor
  ,                                       !- Zone Cooling Sizing Factor
  DesignDay,                              !- Cooling Design Air Flow Method
  ,                                       !- Cooling Design Air Flow Rate {m3/s}
  ,                                       !- Cooling Minimum Air Flow per Zone Floor Area {m3/s-m2}
  ,                                       !- Cooling Minimum Air Flow {m3/s}
  ,                                       !- Cooling Minimum Air Flow Fraction
  DesignDay,                              !- Heating Design Air Flow Method
  ,                                       !- Heating Design Air Flow Rate {m3/s}
  ,                                       !- Heating Maximum Air Flow per Zone Floor Area {m3/s-m2}
  ,                                       !- Heating Maximum Air Flow {m3/s}
  ,                                       !- Heating Maximum Air Flow Fraction
  ,                                       !- Design Zone Air Distribution Effectiveness in Cooling Mode
  ,                                       !- Design Zone Air Distribution Effectiveness in Heating Mode
  No,                                     !- Account for Dedicated Outdoor Air System
  NeutralSupplyAir,                       !- Dedicated Outdoor Air System Control Strategy
  autosize,                               !- Dedicated Outdoor Air Low Setpoint Temperature for Design {C}
  autosize;                               !- Dedicated Outdoor Air High Setpoint Temperature for Design {C}

OS:ZoneHVAC:EquipmentList,
  {6c44368b-804c-46e9-a654-0e60038879bf}, !- Handle
  {9f8cb1cc-a6ed-4fae-a786-81b90baa62b1}, !- Name
  {565f450a-ac3d-423e-b73e-8e55814deba2}; !- Thermal Zone

OS:ThermalZone,
  {850c52b8-4218-4223-a78e-136fc5bbd3ce}, !- Handle
  Floor: 1 Zone: 4,                       !- Name
  ,                                       !- Multiplier
  ,                                       !- Ceiling Height {m}
  ,                                       !- Volume {m3}
  ,                                       !- Floor Area {m2}
  ,                                       !- Zone Inside Convection Algorithm
  ,                                       !- Zone Outside Convection Algorithm
  ,                                       !- Zone Conditioning Equipment List Name
  {83e46f52-34d0-40b0-9b6f-be14cde09fca}, !- Zone Air Inlet Port List
  {ce7750ea-2b2f-4b8b-a859-6f25e8fab1ff}, !- Zone Air Exhaust Port List
  {36908b95-cd89-4686-8802-35758c7f3c18}, !- Zone Air Node Name
  ,                                       !- Zone Return Air Node Name
  ,                                       !- Primary Daylighting Control Name
  ,                                       !- Fraction of Zone Controlled by Primary Daylighting Control
  ,                                       !- Secondary Daylighting Control Name
  ,                                       !- Fraction of Zone Controlled by Secondary Daylighting Control
  ,                                       !- Illuminance Map Name
  ,                                       !- Group Rendering Name
  ,                                       !- Thermostat Name
  No;                                     !- Use Ideal Air Loads

OS:Node,
  {46c978cb-6bf5-4eb2-83c0-e261686b2932}, !- Handle
  {cbd4e2e5-31d7-409e-aa7b-834e1b8fec93}, !- Name
  {36908b95-cd89-4686-8802-35758c7f3c18}, !- Inlet Port
  ;                                       !- Outlet Port

OS:Connection,
  {36908b95-cd89-4686-8802-35758c7f3c18}, !- Handle
  {5237d0ee-ce83-4c2e-9baf-e705ec5c00ea}, !- Name
  {850c52b8-4218-4223-a78e-136fc5bbd3ce}, !- Source Object
  11,                                     !- Outlet Port
  {46c978cb-6bf5-4eb2-83c0-e261686b2932}, !- Target Object
  2;                                      !- Inlet Port

OS:PortList,
  {83e46f52-34d0-40b0-9b6f-be14cde09fca}, !- Handle
  {9bba958a-42fa-4792-b0e4-cf967c79a144}, !- Name
  {850c52b8-4218-4223-a78e-136fc5bbd3ce}; !- HVAC Component

OS:PortList,
  {ce7750ea-2b2f-4b8b-a859-6f25e8fab1ff}, !- Handle
  {68959d70-426f-4cd2-9c68-09318288f078}, !- Name
  {850c52b8-4218-4223-a78e-136fc5bbd3ce}; !- HVAC Component

OS:Sizing:Zone,
  {b80584dc-39d0-4900-84a8-8a4031c5b5b9}, !- Handle
  {850c52b8-4218-4223-a78e-136fc5bbd3ce}, !- Zone or ZoneList Name
  SupplyAirTemperature,                   !- Zone Cooling Design Supply Air Temperature Input Method
  14,                                     !- Zone Cooling Design Supply Air Temperature {C}
  11.11,                                  !- Zone Cooling Design Supply Air Temperature Difference {deltaC}
  SupplyAirTemperature,                   !- Zone Heating Design Supply Air Temperature Input Method
  40,                                     !- Zone Heating Design Supply Air Temperature {C}
  11.11,                                  !- Zone Heating Design Supply Air Temperature Difference {deltaC}
  0.0085,                                 !- Zone Cooling Design Supply Air Humidity Ratio {kg-H2O/kg-air}
  0.008,                                  !- Zone Heating Design Supply Air Humidity Ratio {kg-H2O/kg-air}
  ,                                       !- Zone Heating Sizing Factor
  ,                                       !- Zone Cooling Sizing Factor
  DesignDay,                              !- Cooling Design Air Flow Method
  ,                                       !- Cooling Design Air Flow Rate {m3/s}
  ,                                       !- Cooling Minimum Air Flow per Zone Floor Area {m3/s-m2}
  ,                                       !- Cooling Minimum Air Flow {m3/s}
  ,                                       !- Cooling Minimum Air Flow Fraction
  DesignDay,                              !- Heating Design Air Flow Method
  ,                                       !- Heating Design Air Flow Rate {m3/s}
  ,                                       !- Heating Maximum Air Flow per Zone Floor Area {m3/s-m2}
  ,                                       !- Heating Maximum Air Flow {m3/s}
  ,                                       !- Heating Maximum Air Flow Fraction
  ,                                       !- Design Zone Air Distribution Effectiveness in Cooling Mode
  ,                                       !- Design Zone Air Distribution Effectiveness in Heating Mode
  No,                                     !- Account for Dedicated Outdoor Air System
  NeutralSupplyAir,                       !- Dedicated Outdoor Air System Control Strategy
  autosize,                               !- Dedicated Outdoor Air Low Setpoint Temperature for Design {C}
  autosize;                               !- Dedicated Outdoor Air High Setpoint Temperature for Design {C}

OS:ZoneHVAC:EquipmentList,
  {79fa6ddd-c751-4be4-b02a-d20adea9ea69}, !- Handle
  {7532d63d-b3fe-4613-bfa5-bd2ffcf0db1b}, !- Name
  {850c52b8-4218-4223-a78e-136fc5bbd3ce}; !- Thermal Zone

OS:ThermalZone,
  {12d38730-97c7-448d-90dc-8777326e9a49}, !- Handle
  Floor: 1 Zone: 5,                       !- Name
  ,                                       !- Multiplier
  ,                                       !- Ceiling Height {m}
  ,                                       !- Volume {m3}
  ,                                       !- Floor Area {m2}
  ,                                       !- Zone Inside Convection Algorithm
  ,                                       !- Zone Outside Convection Algorithm
  ,                                       !- Zone Conditioning Equipment List Name
  {068960e7-bef9-42f5-80f5-209d347fcc59}, !- Zone Air Inlet Port List
  {8c4c95b1-5224-46d9-af29-b4857deedaea}, !- Zone Air Exhaust Port List
  {c1596992-57f2-4f1f-b654-fa6d7613f708}, !- Zone Air Node Name
  ,                                       !- Zone Return Air Node Name
  ,                                       !- Primary Daylighting Control Name
  ,                                       !- Fraction of Zone Controlled by Primary Daylighting Control
  ,                                       !- Secondary Daylighting Control Name
  ,                                       !- Fraction of Zone Controlled by Secondary Daylighting Control
  ,                                       !- Illuminance Map Name
  ,                                       !- Group Rendering Name
  ,                                       !- Thermostat Name
  No;                                     !- Use Ideal Air Loads

OS:Node,
  {7669b492-ed15-439a-8dbf-53295d35287e}, !- Handle
  {2a231d3a-101f-450b-b95e-581e9f04a52f}, !- Name
  {c1596992-57f2-4f1f-b654-fa6d7613f708}, !- Inlet Port
  ;                                       !- Outlet Port

OS:Connection,
  {c1596992-57f2-4f1f-b654-fa6d7613f708}, !- Handle
  {4b1597b9-41e5-4139-a6f1-4d492a090786}, !- Name
  {12d38730-97c7-448d-90dc-8777326e9a49}, !- Source Object
  11,                                     !- Outlet Port
  {7669b492-ed15-439a-8dbf-53295d35287e}, !- Target Object
  2;                                      !- Inlet Port

OS:PortList,
  {068960e7-bef9-42f5-80f5-209d347fcc59}, !- Handle
  {1c4d0d4d-753c-407d-8033-8e044f2a346f}, !- Name
  {12d38730-97c7-448d-90dc-8777326e9a49}; !- HVAC Component

OS:PortList,
  {8c4c95b1-5224-46d9-af29-b4857deedaea}, !- Handle
  {1e0469aa-e2a4-406f-ab3a-cc8dd49217db}, !- Name
  {12d38730-97c7-448d-90dc-8777326e9a49}; !- HVAC Component

OS:Sizing:Zone,
  {6136101b-fa0e-4b51-917e-0871ec98f683}, !- Handle
  {12d38730-97c7-448d-90dc-8777326e9a49}, !- Zone or ZoneList Name
  SupplyAirTemperature,                   !- Zone Cooling Design Supply Air Temperature Input Method
  14,                                     !- Zone Cooling Design Supply Air Temperature {C}
  11.11,                                  !- Zone Cooling Design Supply Air Temperature Difference {deltaC}
  SupplyAirTemperature,                   !- Zone Heating Design Supply Air Temperature Input Method
  40,                                     !- Zone Heating Design Supply Air Temperature {C}
  11.11,                                  !- Zone Heating Design Supply Air Temperature Difference {deltaC}
  0.0085,                                 !- Zone Cooling Design Supply Air Humidity Ratio {kg-H2O/kg-air}
  0.008,                                  !- Zone Heating Design Supply Air Humidity Ratio {kg-H2O/kg-air}
  ,                                       !- Zone Heating Sizing Factor
  ,                                       !- Zone Cooling Sizing Factor
  DesignDay,                              !- Cooling Design Air Flow Method
  ,                                       !- Cooling Design Air Flow Rate {m3/s}
  ,                                       !- Cooling Minimum Air Flow per Zone Floor Area {m3/s-m2}
  ,                                       !- Cooling Minimum Air Flow {m3/s}
  ,                                       !- Cooling Minimum Air Flow Fraction
  DesignDay,                              !- Heating Design Air Flow Method
  ,                                       !- Heating Design Air Flow Rate {m3/s}
  ,                                       !- Heating Maximum Air Flow per Zone Floor Area {m3/s-m2}
  ,                                       !- Heating Maximum Air Flow {m3/s}
  ,                                       !- Heating Maximum Air Flow Fraction
  ,                                       !- Design Zone Air Distribution Effectiveness in Cooling Mode
  ,                                       !- Design Zone Air Distribution Effectiveness in Heating Mode
  No,                                     !- Account for Dedicated Outdoor Air System
  NeutralSupplyAir,                       !- Dedicated Outdoor Air System Control Strategy
  autosize,                               !- Dedicated Outdoor Air Low Setpoint Temperature for Design {C}
  autosize;                               !- Dedicated Outdoor Air High Setpoint Temperature for Design {C}

OS:ZoneHVAC:EquipmentList,
  {0c932247-8529-40f9-9e41-e4ce8a5fbf34}, !- Handle
  {9d8f7ce9-5eae-4a2b-9543-ac2ffee93925}, !- Name
  {12d38730-97c7-448d-90dc-8777326e9a49}; !- Thermal Zone

OS:ThermalZone,
  {9c2e934d-86a8-47e1-a13e-35514a54e14e}, !- Handle
  Floor: 1 Zone: 6,                       !- Name
  ,                                       !- Multiplier
  ,                                       !- Ceiling Height {m}
  ,                                       !- Volume {m3}
  ,                                       !- Floor Area {m2}
  ,                                       !- Zone Inside Convection Algorithm
  ,                                       !- Zone Outside Convection Algorithm
  ,                                       !- Zone Conditioning Equipment List Name
  {457180aa-29df-4e66-b9fc-498a2ec102c0}, !- Zone Air Inlet Port List
  {3ae0a20e-ef39-4236-bfc1-837af7c5c1c7}, !- Zone Air Exhaust Port List
  {2bfd664e-9272-4e03-80f7-28961718c8a0}, !- Zone Air Node Name
  ,                                       !- Zone Return Air Node Name
  ,                                       !- Primary Daylighting Control Name
  ,                                       !- Fraction of Zone Controlled by Primary Daylighting Control
  ,                                       !- Secondary Daylighting Control Name
  ,                                       !- Fraction of Zone Controlled by Secondary Daylighting Control
  ,                                       !- Illuminance Map Name
  ,                                       !- Group Rendering Name
  ,                                       !- Thermostat Name
  No;                                     !- Use Ideal Air Loads

OS:Node,
  {32fa45ad-2660-4285-a10e-4f15db9f60f6}, !- Handle
  {5b1a65de-97f0-4ab3-8292-734080f80d53}, !- Name
  {2bfd664e-9272-4e03-80f7-28961718c8a0}, !- Inlet Port
  ;                                       !- Outlet Port

OS:Connection,
  {2bfd664e-9272-4e03-80f7-28961718c8a0}, !- Handle
  {d798c639-042e-4534-bfce-b9398bdce6af}, !- Name
  {9c2e934d-86a8-47e1-a13e-35514a54e14e}, !- Source Object
  11,                                     !- Outlet Port
  {32fa45ad-2660-4285-a10e-4f15db9f60f6}, !- Target Object
  2;                                      !- Inlet Port

OS:PortList,
  {457180aa-29df-4e66-b9fc-498a2ec102c0}, !- Handle
  {fc760f0d-17d0-4357-8b49-0743e5c03ca5}, !- Name
  {9c2e934d-86a8-47e1-a13e-35514a54e14e}; !- HVAC Component

OS:PortList,
  {3ae0a20e-ef39-4236-bfc1-837af7c5c1c7}, !- Handle
  {01d862b9-fcbf-4c7f-b52f-e17ccb2894fa}, !- Name
  {9c2e934d-86a8-47e1-a13e-35514a54e14e}; !- HVAC Component

OS:Sizing:Zone,
  {76b7cf38-0869-4c32-8f0f-c6b7bdea7313}, !- Handle
  {9c2e934d-86a8-47e1-a13e-35514a54e14e}, !- Zone or ZoneList Name
  SupplyAirTemperature,                   !- Zone Cooling Design Supply Air Temperature Input Method
  14,                                     !- Zone Cooling Design Supply Air Temperature {C}
  11.11,                                  !- Zone Cooling Design Supply Air Temperature Difference {deltaC}
  SupplyAirTemperature,                   !- Zone Heating Design Supply Air Temperature Input Method
  40,                                     !- Zone Heating Design Supply Air Temperature {C}
  11.11,                                  !- Zone Heating Design Supply Air Temperature Difference {deltaC}
  0.0085,                                 !- Zone Cooling Design Supply Air Humidity Ratio {kg-H2O/kg-air}
  0.008,                                  !- Zone Heating Design Supply Air Humidity Ratio {kg-H2O/kg-air}
  ,                                       !- Zone Heating Sizing Factor
  ,                                       !- Zone Cooling Sizing Factor
  DesignDay,                              !- Cooling Design Air Flow Method
  ,                                       !- Cooling Design Air Flow Rate {m3/s}
  ,                                       !- Cooling Minimum Air Flow per Zone Floor Area {m3/s-m2}
  ,                                       !- Cooling Minimum Air Flow {m3/s}
  ,                                       !- Cooling Minimum Air Flow Fraction
  DesignDay,                              !- Heating Design Air Flow Method
  ,                                       !- Heating Design Air Flow Rate {m3/s}