
Version,
  8.8;                                    !- Version Identifier

LifeCycleCost:Parameters,
  {7be3b397-af09-4be2-b14b-c781fec30ecc}, !- Name
  EndOfYear,                              !- Discounting Convention
  ConstantDollar,                         !- Inflation Approach
  0.03,                                   !- Real Discount Rate
  ,                                       !- Nominal Discount Rate
  ,                                       !- Inflation
  ,                                       !- Base Date Month
  2011,                                   !- Base Date Year
  ,                                       !- Service Date Month
  2011,                                   !- Service Date Year
  25,                                     !- Length of Study Period in Years
  ,                                       !- Tax rate
  None;                                   !- Depreciation Method

LifeCycleCost:UsePriceEscalation,
  U.S. Avg  Commercial-Electricity,       !- LCC Price Escalation Name
  Electricity,                            !- Resource
  2011,                                   !- Escalation Start Year
  January,                                !- Escalation Start Month
  0.9838,                                 !- Year Escalation 1
  0.9730,                                 !- Year Escalation 2
  0.9632,                                 !- Year Escalation 3
  0.9611,                                 !- Year Escalation 4
  0.9571,                                 !- Year Escalation 5
  0.9553,                                 !- Year Escalation 6
  0.9539,                                 !- Year Escalation 7
  0.9521,                                 !- Year Escalation 8
  0.9546,                                 !- Year Escalation 9
  0.9550,                                 !- Year Escalation 10
  0.9553,                                 !- Year Escalation 11
  0.9564,                                 !- Year Escalation 12
  0.9575,                                 !- Year Escalation 13
  0.9596,                                 !- Year Escalation 14
  0.9618,                                 !- Year Escalation 15
  0.9614,                                 !- Year Escalation 16
  0.9618,                                 !- Year Escalation 17
  0.9618,                                 !- Year Escalation 18
  0.9593,                                 !- Year Escalation 19
  0.9589,                                 !- Year Escalation 20
  0.9607,                                 !- Year Escalation 21
  0.9625,                                 !- Year Escalation 22
  0.9650,                                 !- Year Escalation 23
  0.9708,                                 !- Year Escalation 24
  0.9751,                                 !- Year Escalation 25
  0.9762,                                 !- Year Escalation 26
  0.9766,                                 !- Year Escalation 27
  0.9766,                                 !- Year Escalation 28
  0.9769,                                 !- Year Escalation 29
  0.9773;                                 !- Year Escalation 30

LifeCycleCost:UsePriceEscalation,
  U.S. Avg  Commercial-Distillate Oil,    !- LCC Price Escalation Name
  FuelOil#1,                              !- Resource
  2011,                                   !- Escalation Start Year
  January,                                !- Escalation Start Month
  0.9714,                                 !- Year Escalation 1
  0.9730,                                 !- Year Escalation 2
  0.9942,                                 !- Year Escalation 3
  1.0164,                                 !- Year Escalation 4
  1.0541,                                 !- Year Escalation 5
  1.0928,                                 !- Year Escalation 6
  1.1267,                                 !- Year Escalation 7
  1.1580,                                 !- Year Escalation 8
  1.1792,                                 !- Year Escalation 9
  1.1967,                                 !- Year Escalation 10
  1.2200,                                 !- Year Escalation 11
  1.2333,                                 !- Year Escalation 12
  1.2566,                                 !- Year Escalation 13
  1.2709,                                 !- Year Escalation 14
  1.2826,                                 !- Year Escalation 15
  1.2985,                                 !- Year Escalation 16
  1.3102,                                 !- Year Escalation 17
  1.3250,                                 !- Year Escalation 18
  1.3261,                                 !- Year Escalation 19
  1.3282,                                 !- Year Escalation 20
  1.3324,                                 !- Year Escalation 21
  1.3356,                                 !- Year Escalation 22
  1.3431,                                 !- Year Escalation 23
  1.3510,                                 !- Year Escalation 24
  1.3568,                                 !- Year Escalation 25
  1.3606,                                 !- Year Escalation 26
  1.3637,                                 !- Year Escalation 27
  1.3674,                                 !- Year Escalation 28
  1.3706,                                 !- Year Escalation 29
  1.3743;                                 !- Year Escalation 30

LifeCycleCost:UsePriceEscalation,
  U.S. Avg  Commercial-Residual Oil,      !- LCC Price Escalation Name
  FuelOil#2,                              !- Resource
  2011,                                   !- Escalation Start Year
  January,                                !- Escalation Start Month
  0.8469,                                 !- Year Escalation 1
  0.8257,                                 !- Year Escalation 2
  0.8681,                                 !- Year Escalation 3
  0.8988,                                 !- Year Escalation 4
  0.9289,                                 !- Year Escalation 5
  0.9604,                                 !- Year Escalation 6
  0.9897,                                 !- Year Escalation 7
  1.0075,                                 !- Year Escalation 8
  1.0314,                                 !- Year Escalation 9
  1.0554,                                 !- Year Escalation 10
  1.0861,                                 !- Year Escalation 11
  1.1278,                                 !- Year Escalation 12
  1.1497,                                 !- Year Escalation 13
  1.1620,                                 !- Year Escalation 14
  1.1743,                                 !- Year Escalation 15
  1.1852,                                 !- Year Escalation 16
  1.1948,                                 !- Year Escalation 17
  1.2037,                                 !- Year Escalation 18
  1.2071,                                 !- Year Escalation 19
  1.2119,                                 !- Year Escalation 20
  1.2139,                                 !- Year Escalation 21
  1.2194,                                 !- Year Escalation 22
  1.2276,                                 !- Year Escalation 23
  1.2365,                                 !- Year Escalation 24
  1.2420,                                 !- Year Escalation 25
  1.2461,                                 !- Year Escalation 26
  1.2509,                                 !- Year Escalation 27
  1.2550,                                 !- Year Escalation 28
  1.2591,                                 !- Year Escalation 29
  1.2638;                                 !- Year Escalation 30

LifeCycleCost:UsePriceEscalation,
  U.S. Avg  Commercial-Natural gas,       !- LCC Price Escalation Name
  NaturalGas,                             !- Resource
  2011,                                   !- Escalation Start Year
  January,                                !- Escalation Start Month
  0.9823,                                 !- Year Escalation 1
  0.9557,                                 !- Year Escalation 2
  0.9279,                                 !- Year Escalation 3
  0.9257,                                 !- Year Escalation 4
  0.9346,                                 !- Year Escalation 5
  0.9412,                                 !- Year Escalation 6
  0.9512,                                 !- Year Escalation 7
  0.9645,                                 !- Year Escalation 8
  0.9856,                                 !- Year Escalation 9
  1.0067,                                 !- Year Escalation 10
  1.0222,                                 !- Year Escalation 11
  1.0410,                                 !- Year Escalation 12
  1.0610,                                 !- Year Escalation 13
  1.0787,                                 !- Year Escalation 14
  1.0942,                                 !- Year Escalation 15
  1.1098,                                 !- Year Escalation 16
  1.1220,                                 !- Year Escalation 17
  1.1308,                                 !- Year Escalation 18
  1.1386,                                 !- Year Escalation 19
  1.1486,                                 !- Year Escalation 20
  1.1619,                                 !- Year Escalation 21
  1.1763,                                 !- Year Escalation 22
  1.1918,                                 !- Year Escalation 23
  1.2118,                                 !- Year Escalation 24
  1.2284,                                 !- Year Escalation 25
  1.2439,                                 !- Year Escalation 26
  1.2605,                                 !- Year Escalation 27
  1.2772,                                 !- Year Escalation 28
  1.2938,                                 !- Year Escalation 29
  1.3115;                                 !- Year Escalation 30

LifeCycleCost:UsePriceEscalation,
  U.S. Avg  Commercial-Coal,              !- LCC Price Escalation Name
  Coal,                                   !- Resource
  2011,                                   !- Escalation Start Year
  January,                                !- Escalation Start Month
  0.9970,                                 !- Year Escalation 1
  1.0089,                                 !- Year Escalation 2
  1.0089,                                 !- Year Escalation 3
  0.9941,                                 !- Year Escalation 4
  0.9941,                                 !- Year Escalation 5
  1.0000,                                 !- Year Escalation 6
  1.0030,                                 !- Year Escalation 7
  1.0059,                                 !- Year Escalation 8
  1.0089,                                 !- Year Escalation 9
  1.0119,                                 !- Year Escalation 10
  1.0148,                                 !- Year Escalation 11
  1.0178,                                 !- Year Escalation 12
  1.0208,                                 !- Year Escalation 13
  1.0267,                                 !- Year Escalation 14
  1.0297,                                 !- Year Escalation 15
  1.0356,                                 !- Year Escalation 16
  1.0415,                                 !- Year Escalation 17
  1.0534,                                 !- Year Escalation 18
  1.0564,                                 !- Year Escalation 19
  1.0593,                                 !- Year Escalation 20
  1.0653,                                 !- Year Escalation 21
  1.0712,                                 !- Year Escalation 22
  1.0742,                                 !- Year Escalation 23
  1.0801,                                 !- Year Escalation 24
  1.0831,                                 !- Year Escalation 25
  1.0831,                                 !- Year Escalation 26
  1.0861,                                 !- Year Escalation 27
  1.0890,                                 !- Year Escalation 28
  1.0920,                                 !- Year Escalation 29
  1.0950;                                 !- Year Escalation 30

Building,
  bldg-1,                                 !- Name
  ,                                       !- North Axis {deg}
  ,                                       !- Terrain
  ,                                       !- Loads Convergence Tolerance Value
  ,                                       !- Temperature Convergence Tolerance Value {deltaC}
  ,                                       !- Solar Distribution
  ,                                       !- Maximum Number of Warmup Days
  ;                                       !- Minimum Number of Warmup Days

Zone,
  Default,                                !- Name
  ,                                       !- Direction of Relative North {deg}
  0,                                      !- X Origin {m}
  0,                                      !- Y Origin {m}
  0,                                      !- Z Origin {m}
  ,                                       !- Type
  ,                                       !- Multiplier
  ,                                       !- Ceiling Height {m}
  ,                                       !- Volume {m3}
  3128.99577345,                          !- Floor Area {m2}
  ,                                       !- Zone Inside Convection Algorithm
  ,                                       !- Zone Outside Convection Algorithm
  Yes;                                    !- Part of Total Floor Area

BuildingSurface:Detailed,
  B-00_110-E-F-58,                        !- Name
  Floor,                                  !- Surface Type
  ,                                       !- Construction Name
  Default,                                !- Zone Name
  Outdoors,                               !- Outside Boundary Condition
  ,                                       !- Outside Boundary Condition Object
  SunExposed,                             !- Sun Exposure
  WindExposed,                            !- Wind Exposure
  ,                                       !- View Factor to Ground
  ,                                       !- Number of Vertices
  496.6849, 1014.154, 19.25,              !- X,Y,Z Vertex 1 {m}
  496.9846, 1019.145, 19.25,              !- X,Y,Z Vertex 2 {m}
  499.8793, 1018.971, 19.25,              !- X,Y,Z Vertex 3 {m}
  499.5796, 1013.98, 19.25;               !- X,Y,Z Vertex 4 {m}

BuildingSurface:Detailed,
  B-00_111-E-F-63,                        !- Name
  Floor,                                  !- Surface Type
  ,                                       !- Construction Name
  Default,                                !- Zone Name
  Outdoors,                               !- Outside Boundary Condition
  ,                                       !- Outside Boundary Condition Object
  SunExposed,                             !- Sun Exposure
  WindExposed,                            !- Wind Exposure
  ,                                       !- View Factor to Ground
  ,                                       !- Number of Vertices
  496.2722, 1007.281, 19.25,              !- X,Y,Z Vertex 1 {m}
  496.3702, 1008.914, 19.25,              !- X,Y,Z Vertex 2 {m}
  497.8664, 1008.824, 19.25,              !- X,Y,Z Vertex 3 {m}
  497.7684, 1007.191, 19.25;              !- X,Y,Z Vertex 4 {m}

BuildingSurface:Detailed,
  B-00_112-E-F-70,                        !- Name
  Floor,                                  !- Surface Type
  ,                                       !- Construction Name
  Default,                                !- Zone Name
  Outdoors,                               !- Outside Boundary Condition
  ,                                       !- Outside Boundary Condition Object
  SunExposed,                             !- Sun Exposure
  WindExposed,                            !- Wind Exposure
  ,                                       !- View Factor to Ground
  ,                                       !- Number of Vertices
  496.3702, 1008.914, 19.25,              !- X,Y,Z Vertex 1 {m}
  496.6849, 1014.154, 19.25,              !- X,Y,Z Vertex 2 {m}
  499.5796, 1013.98, 19.25,               !- X,Y,Z Vertex 3 {m}
  499.2649, 1008.74, 19.25;               !- X,Y,Z Vertex 4 {m}

BuildingSurface:Detailed,
  B-00_113-E-F-76,                        !- Name
  Floor,                                  !- Surface Type
  ,                                       !- Construction Name
  Default,                                !- Zone Name
  Outdoors,                               !- Outside Boundary Condition
  ,                                       !- Outside Boundary Condition Object
  SunExposed,                             !- Sun Exposure
  WindExposed,                            !- Wind Exposure
  ,                                       !- View Factor to Ground
  ,                                       !- Number of Vertices
  491.8579, 1002.172, 19.25,              !- X,Y,Z Vertex 1 {m}
  491.9103, 1003.045, 19.25,              !- X,Y,Z Vertex 2 {m}
  496.0031, 1002.8, 19.25,                !- X,Y,Z Vertex 3 {m}
  496.2722, 1007.281, 19.25,              !- X,Y,Z Vertex 4 {m}
  497.7684, 1007.191, 19.25,              !- X,Y,Z Vertex 5 {m}
  497.8664, 1008.824, 19.25,              !- X,Y,Z Vertex 6 {m}
  499.2649, 1008.74, 19.25,               !- X,Y,Z Vertex 7 {m}
  498.8453, 1001.752, 19.25;              !- X,Y,Z Vertex 8 {m}

BuildingSurface:Detailed,
  B-00_123-E-F-163,                       !- Name
  Floor,                                  !- Surface Type
  ,                                       !- Construction Name
  Default,                                !- Zone Name
  Outdoors,                               !- Outside Boundary Condition
  ,                                       !- Outside Boundary Condition Object
  SunExposed,                             !- Sun Exposure
  WindExposed,                            !- Wind Exposure
  ,                                       !- View Factor to Ground
  ,                                       !- Number of Vertices
  478.4095, 1011.777, 19.25,              !- X,Y,Z Vertex 1 {m}
  478.9171, 1020.23, 19.25,               !- X,Y,Z Vertex 2 {m}
  482.9455, 1019.988, 19.25,              !- X,Y,Z Vertex 3 {m}
  482.438, 1011.535, 19.25;               !- X,Y,Z Vertex 4 {m}

BuildingSurface:Detailed,
  B-00_129-E-F-185,                       !- Name
  Floor,                                  !- Surface Type
  ,                                       !- Construction Name
  Default,                                !- Zone Name
  Outdoors,                               !- Outside Boundary Condition
  ,                                       !- Outside Boundary Condition Object
  SunExposed,                             !- Sun Exposure
  WindExposed,                            !- Wind Exposure
  ,                                       !- View Factor to Ground
  ,                                       !- Number of Vertices
  482.3311, 1009.757, 19.25,              !- X,Y,Z Vertex 1 {m}
  482.9455, 1019.988, 19.25,              !- X,Y,Z Vertex 2 {m}
  496.9846, 1019.145, 19.25,              !- X,Y,Z Vertex 3 {m}
  496.3702, 1008.914, 19.25;              !- X,Y,Z Vertex 4 {m}

BuildingSurface:Detailed,
  B-00_130-E-F-194,                       !- Name
  Floor,                                  !- Surface Type
  ,                                       !- Construction Name
  Default,                                !- Zone Name
  Outdoors,                               !- Outside Boundary Condition
  ,                                       !- Outside Boundary Condition Object
  SunExposed,                             !- Sun Exposure
  WindExposed,                            !- Wind Exposure
  ,                                       !- View Factor to Ground
  ,                                       !- Number of Vertices
  477.8831, 1003.011, 19.25,              !- X,Y,Z Vertex 1 {m}
  478.4095, 1011.777, 19.25,              !- X,Y,Z Vertex 2 {m}
  482.438, 1011.535, 19.25,               !- X,Y,Z Vertex 3 {m}
  482.3311, 1009.757, 19.25,              !- X,Y,Z Vertex 4 {m}
  496.3702, 1008.914, 19.25,              !- X,Y,Z Vertex 5 {m}
  496.0031, 1002.8, 19.25,                !- X,Y,Z Vertex 6 {m}
  491.9103, 1003.045, 19.25,              !- X,Y,Z Vertex 7 {m}
  491.8579, 1002.172, 19.25;              !- X,Y,Z Vertex 8 {m}

BuildingSurface:Detailed,
  B-B1_100-E-F-425,                       !- Name
  Floor,                                  !- Surface Type
  ,                                       !- Construction Name
  Default,                                !- Zone Name
  Ground,                                 !- Outside Boundary Condition
  ,                                       !- Outside Boundary Condition Object
  NoSun,                                  !- Sun Exposure
  NoWind,                                 !- Wind Exposure
  ,                                       !- View Factor to Ground
  ,                                       !- Number of Vertices
  483.3229, 1033.129, 15.75,              !- X,Y,Z Vertex 1 {m}
  483.4557, 1035.34, 15.75,               !- X,Y,Z Vertex 2 {m}
  485.2278, 1035.234, 15.75,              !- X,Y,Z Vertex 3 {m}
  485.095, 1033.023, 15.75;               !- X,Y,Z Vertex 4 {m}

BuildingSurface:Detailed,
  B-B1_101-E-F-431,                       !- Name
  Floor,                                  !- Surface Type
  ,                                       !- Construction Name
  Default,                                !- Zone Name
  Ground,                                 !- Outside Boundary Condition
  ,                                       !- Outside Boundary Condition Object
  NoSun,                                  !- Sun Exposure
  NoWind,                                 !- Wind Exposure
  ,                                       !- View Factor to Ground
  ,                                       !- Number of Vertices
  496.4889, 1026.739, 15.75,              !- X,Y,Z Vertex 1 {m}
  496.6178, 1028.885, 15.75,              !- X,Y,Z Vertex 2 {m}
  497.566, 1028.828, 15.75,               !- X,Y,Z Vertex 3 {m}
  497.4372, 1026.682, 15.75;              !- X,Y,Z Vertex 4 {m}

BuildingSurface:Detailed,
  B-B1_102-E-F-437,                       !- Name
  Floor,                                  !- Surface Type
  ,                                       !- Construction Name
  Default,                                !- Zone Name
  Ground,                                 !- Outside Boundary Condition
  ,                                       !- Outside Boundary Condition Object
  NoSun,                                  !- Sun Exposure
  NoWind,                                 !- Wind Exposure
  ,                                       !- View Factor to Ground
  ,                                       !- Number of Vertices
  497.4372, 1026.682, 15.75,              !- X,Y,Z Vertex 1 {m}
  497.566, 1028.828, 15.75,               !- X,Y,Z Vertex 2 {m}
  500.4607, 1028.654, 15.75,              !- X,Y,Z Vertex 3 {m}
  500.3318, 1026.508, 15.75;              !- X,Y,Z Vertex 4 {m}

BuildingSurface:Detailed,
  B-B1_103-E-F-441,                       !- Name
  Floor,                                  !- Surface Type
  ,                                       !- Construction Name
  Default,                                !- Zone Name
  Ground,                                 !- Outside Boundary Condition
  ,                                       !- Outside Boundary Condition Object
  NoSun,                                  !- Sun Exposure
  NoWind,                                 !- Wind Exposure
  ,                                       !- View Factor to Ground
  ,                                       !- Number of Vertices
  497.566, 1028.828, 15.75,               !- X,Y,Z Vertex 1 {m}
  497.6739, 1030.624, 15.75,              !- X,Y,Z Vertex 2 {m}
  500.5686, 1030.451, 15.75,              !- X,Y,Z Vertex 3 {m}
  500.4607, 1028.654, 15.75;              !- X,Y,Z Vertex 4 {m}

BuildingSurface:Detailed,
  B-B1_104-E-F-446,                       !- Name
  Floor,                                  !- Surface Type
  ,                                       !- Construction Name
  Default,                                !- Zone Name
  Ground,                                 !- Outside Boundary Condition
  ,                                       !- Outside Boundary Condition Object
  NoSun,                                  !- Sun Exposure
  NoWind,                                 !- Wind Exposure
  ,                                       !- View Factor to Ground
  ,                                       !- Number of Vertices
  489.2014, 1025.373, 15.75,              !- X,Y,Z Vertex 1 {m}
  489.5461, 1031.113, 15.75,              !- X,Y,Z Vertex 2 {m}
  491.3429, 1031.005, 15.75,              !- X,Y,Z Vertex 3 {m}
  491.1061, 1027.062, 15.75,              !- X,Y,Z Vertex 4 {m}
  493.4443, 1026.921, 15.75,              !- X,Y,Z Vertex 5 {m}
  493.5008, 1027.863, 15.75,              !- X,Y,Z Vertex 6 {m}
  495.1079, 1027.767, 15.75,              !- X,Y,Z Vertex 7 {m}
  495.0514, 1026.825, 15.75,              !- X,Y,Z Vertex 8 {m}
  500.3318, 1026.508, 15.75,              !- X,Y,Z Vertex 9 {m}
  499.8793, 1018.971, 15.75,              !- X,Y,Z Vertex 10 {m}
  496.9846, 1019.145, 15.75,              !- X,Y,Z Vertex 11 {m}
  497.2727, 1023.943, 15.75,              !- X,Y,Z Vertex 12 {m}
  495.6656, 1024.039, 15.75,              !- X,Y,Z Vertex 13 {m}
  495.7221, 1024.981, 15.75;              !- X,Y,Z Vertex 14 {m}

BuildingSurface:Detailed,
  B-B1_105-E-F-460,                       !- Name
  Floor,                                  !- Surface Type
  ,                                       !- Construction Name
  Default,                                !- Zone Name
  Ground,                                 !- Outside Boundary Condition
  ,                                       !- Outside Boundary Condition Object
  NoSun,                                  !- Sun Exposure
  NoWind,                                 !- Wind Exposure
  ,                                       !- View Factor to Ground
  ,                                       !- Number of Vertices
  488.8568, 1019.633, 15.75,              !- X,Y,Z Vertex 1 {m}
  489.2014, 1025.373, 15.75,              !- X,Y,Z Vertex 2 {m}
  495.7221, 1024.981, 15.75,              !- X,Y,Z Vertex 3 {m}
  495.6656, 1024.039, 15.75,              !- X,Y,Z Vertex 4 {m}
  497.2727, 1023.943, 15.75,              !- X,Y,Z Vertex 5 {m}
  496.9846, 1019.145, 15.75;              !- X,Y,Z Vertex 6 {m}

BuildingSurface:Detailed,
  B-B1_106-E-F-464,                       !- Name
  Floor,                                  !- Surface Type
  ,                                       !- Construction Name
  Default,                                !- Zone Name
  Ground,                                 !- Outside Boundary Condition
  ,                                       !- Outside Boundary Condition Object
  NoSun,                                  !- Sun Exposure
  NoWind,                                 !- Wind Exposure
  ,                                       !- View Factor to Ground
  ,                                       !- Number of Vertices
  478.9171, 1020.23, 15.75,               !- X,Y,Z Vertex 1 {m}
  479.7712, 1034.454, 15.75,              !- X,Y,Z Vertex 2 {m}
  483.3895, 1034.237, 15.75,              !- X,Y,Z Vertex 3 {m}
  483.3229, 1033.129, 15.75,              !- X,Y,Z Vertex 4 {m}
  485.095, 1033.023, 15.75,               !- X,Y,Z Vertex 5 {m}
  484.9967, 1031.386, 15.75,              !- X,Y,Z Vertex 6 {m}
  489.5461, 1031.113, 15.75,              !- X,Y,Z Vertex 7 {m}
  488.8568, 1019.633, 15.75;              !- X,Y,Z Vertex 8 {m}

BuildingSurface:Detailed,
  B-B1_107-E-F-470,                       !- Name
  Floor,                                  !- Surface Type
  ,                                       !- Construction Name
  Default,                                !- Zone Name
  Ground,                                 !- Outside Boundary Condition
  ,                                       !- Outside Boundary Condition Object
  NoSun,                                  !- Sun Exposure
  NoWind,                                 !- Wind Exposure
  ,                                       !- View Factor to Ground
  ,                                       !- Number of Vertices
  479.7712, 1034.454, 15.75,              !- X,Y,Z Vertex 1 {m}
  480.2957, 1043.189, 15.75,              !- X,Y,Z Vertex 2 {m}
  492.0322, 1042.484, 15.75,              !- X,Y,Z Vertex 3 {m}
  491.3429, 1031.005, 15.75,              !- X,Y,Z Vertex 4 {m}
  484.9967, 1031.386, 15.75,              !- X,Y,Z Vertex 5 {m}
  485.2278, 1035.234, 15.75,              !- X,Y,Z Vertex 6 {m}
  483.4557, 1035.34, 15.75,               !- X,Y,Z Vertex 7 {m}
  483.3895, 1034.237, 15.75;              !- X,Y,Z Vertex 8 {m}

BuildingSurface:Detailed,
  B-B1_108-E-F-474,                       !- Name
  Floor,                                  !- Surface Type
  ,                                       !- Construction Name
  Default,                                !- Zone Name
  Ground,                                 !- Outside Boundary Condition
  ,                                       !- Outside Boundary Condition Object
  NoSun,                                  !- Sun Exposure
  NoWind,                                 !- Wind Exposure
  ,                                       !- View Factor to Ground
  ,                                       !- Number of Vertices
  491.8086, 1038.76, 15.75,               !- X,Y,Z Vertex 1 {m}
  491.9277, 1040.744, 15.75,              !- X,Y,Z Vertex 2 {m}
  494.166, 1040.609, 15.75,               !- X,Y,Z Vertex 3 {m}
  494.0469, 1038.626, 15.75;              !- X,Y,Z Vertex 4 {m}

BuildingSurface:Detailed,
  B-B1_109-E-F-480,                       !- Name
  Floor,                                  !- Surface Type
  ,                                       !- Construction Name
  Default,                                !- Zone Name
  Ground,                                 !- Outside Boundary Condition