! EDSL Tas v9.4.2
! Website: www.edsl.net
! Email: support@edsl.net

Version,8.8;

Building,
SAM_Live_942a,	!- Name
0,	!- North Axis {deg}
Suburbs,	!- Terrain
0.04,	!- Loads Convergence Tolerance Value
0.4,	!- Temperature Convergence Tolerance Value {deltaC}
FullExterior,	!- Solar Distribution
25,	!- Maximum Number of Warmup Days
6;	!- Minimum Number of Warmup Days

GlobalGeometryRules,
UpperLeftCorner,	!- Starting Vertex Position
Counterclockwise,	!- Vertex Entry Direction
World,	!- Coordinate System
World,	!- Daylighting Reference Point Coordinate System
World;	!- Rectangular Surface Coordinate System


!-   ===========  ALL OBJECTS IN CLASS: SCHEDULETYPELIMITS ===========

ScheduleTypeLimits,
Any Number;	!- Name

ScheduleTypeLimits,
Fraction,	!- Name
0.0,	!- Lower Limit Value
1.0,	!- Upper Limit Value
CONTINUOUS;	!- Numeric Type

ScheduleTypeLimits,
Temperature,	!- Name
-50,	!- Lower Limit Value
150,	!- Upper Limit Value
CONTINUOUS;	!- Numeric Type

ScheduleTypeLimits,
RelativeHumidity,	!- Name
0,	!- Lower Limit Value
100,	!- Upper Limit Value
CONTINUOUS;	!- Numeric Type

ScheduleTypeLimits,
Control Type,	!- Name
0,	!- Lower Limit Value
4,	!- Upper Limit Value
DISCRETE;	!- Numeric Type


!-   ===========  ALL OBJECTS IN CLASS: MATERIAL ===========

Material,
Hardwood,	!- Name
MediumSmooth,	!- Roughness
0.052,	!- Thickness {m}
0.18,	!- Conductivity {W/m-K}
2100,	!- Density {kg/m3}
1000,	!- Specific Heat {J/kg-K}
0.9,	!- Thermal Absorptance
0.7,	!- Solar Absorptance
1;	!- Visible Absorptance

Material,
chipboard flooring,	!- Name
MediumSmooth,	!- Roughness
0.02,	!- Thickness {m}
0.13,	!- Conductivity {W/m-K}
500,	!- Density {kg/m3}
1600,	!- Specific Heat {J/kg-K}
0.9,	!- Thermal Absorptance
0.7,	!- Solar Absorptance
1;	!- Visible Absorptance

Material,
Reinforced concrete,	!- Name
MediumSmooth,	!- Roughness
0.1,	!- Thickness {m}
2.3,	!- Conductivity {W/m-K}
2300,	!- Density {kg/m3}
1000,	!- Specific Heat {J/kg-K}
0.9,	!- Thermal Absorptance
0.7,	!- Solar Absorptance
1;	!- Visible Absorptance

Material,
Insulation 4,	!- Name
MediumSmooth,	!- Roughness
0.098,	!- Thickness {m}
0.025,	!- Conductivity {W/m-K}
700,	!- Density {kg/m3}
1000,	!- Specific Heat {J/kg-K}
0.9,	!- Thermal Absorptance
0.7,	!- Solar Absorptance
1;	!- Visible Absorptance

Material,
Plasterboard,	!- Name
MediumSmooth,	!- Roughness
0.0125,	!- Thickness {m}
0.21,	!- Conductivity {W/m-K}
700,	!- Density {kg/m3}
1000,	!- Specific Heat {J/kg-K}
0.9,	!- Thermal Absorptance
0.7,	!- Solar Absorptance
1;	!- Visible Absorptance

Material,
Cement bonded particle board,	!- Name
MediumSmooth,	!- Roughness
0.012,	!- Thickness {m}
0.23,	!- Conductivity {W/m-K}
1100,	!- Density {kg/m3}
1000,	!- Specific Heat {J/kg-K}
0.9,	!- Thermal Absorptance
0.7,	!- Solar Absorptance
1;	!- Visible Absorptance

Material,
Insulation 3,	!- Name
MediumSmooth,	!- Roughness
0.08000001,	!- Thickness {m}
0.025,	!- Conductivity {W/m-K}
20,	!- Density {kg/m3}
1030,	!- Specific Heat {J/kg-K}
0.9,	!- Thermal Absorptance
0.7,	!- Solar Absorptance
1;	!- Visible Absorptance

Material,
Rainscreen,	!- Name
MediumSmooth,	!- Roughness
0.003,	!- Thickness {m}
50,	!- Conductivity {W/m-K}
7800,	!- Density {kg/m3}
450,	!- Specific Heat {J/kg-K}
0.9,	!- Thermal Absorptance
0.7,	!- Solar Absorptance
1;	!- Visible Absorptance

Material,
Frame-Notional Building,	!- Name
MediumSmooth,	!- Roughness
0.05,	!- Thickness {m}
0.176,	!- Conductivity {W/m-K}
7800,	!- Density {kg/m3}
450,	!- Specific Heat {J/kg-K}
0.85,	!- Thermal Absorptance
0,	!- Solar Absorptance
0;	!- Visible Absorptance

Material,
Plasterboard (ceiling),	!- Name
MediumSmooth,	!- Roughness
0.0095,	!- Thickness {m}
0.21,	!- Conductivity {W/m-K}
900,	!- Density {kg/m3}
1000,	!- Specific Heat {J/kg-K}
0.9,	!- Thermal Absorptance
0.7,	!- Solar Absorptance
1;	!- Visible Absorptance

Material,
Min wool quilt. 300 mm,	!- Name
MediumSmooth,	!- Roughness
0.3,	!- Thickness {m}
0.04,	!- Conductivity {W/m-K}
12,	!- Density {kg/m3}
1030,	!- Specific Heat {J/kg-K}
0.9,	!- Thermal Absorptance
0.7,	!- Solar Absorptance
1;	!- Visible Absorptance

Material,
Screed,	!- Name
MediumSmooth,	!- Roughness
0.05,	!- Thickness {m}
1.15,	!- Conductivity {W/m-K}
1800,	!- Density {kg/m3}
1000,	!- Specific Heat {J/kg-K}
0.9,	!- Thermal Absorptance
0.7,	!- Solar Absorptance
1;	!- Visible Absorptance

Material,
Insulation 5,	!- Name
MediumSmooth,	!- Roughness
0.155,	!- Thickness {m}
0.04,	!- Conductivity {W/m-K}
20,	!- Density {kg/m3}
1030,	!- Specific Heat {J/kg-K}
0.9,	!- Thermal Absorptance
0.7,	!- Solar Absorptance
1;	!- Visible Absorptance

Material,
Notional/Reference Soil,	!- Name
MediumSmooth,	!- Roughness
0.25,	!- Thickness {m}
1.5,	!- Conductivity {W/m-K}
1250,	!- Density {kg/m3}
2500,	!- Specific Heat {J/kg-K}
0.91,	!- Thermal Absorptance
0.82,	!- Solar Absorptance
1;	!- Visible Absorptance

Material,
Concrete Deck,	!- Name
MediumSmooth,	!- Roughness
0.1,	!- Thickness {m}
2,	!- Conductivity {W/m-K}
2400,	!- Density {kg/m3}
1000,	!- Specific Heat {J/kg-K}
0.9,	!- Thermal Absorptance
0.7,	!- Solar Absorptance
1;	!- Visible Absorptance

Material,
membrane,	!- Name
MediumSmooth,	!- Roughness
0.001,	!- Thickness {m}
1,	!- Conductivity {W/m-K}
1100,	!- Density {kg/m3}
1000,	!- Specific Heat {J/kg-K}
0.9,	!- Thermal Absorptance
0.7,	!- Solar Absorptance
1;	!- Visible Absorptance

Material,
Insulation 1,	!- Name
MediumSmooth,	!- Roughness
0.154,	!- Thickness {m}
0.03,	!- Conductivity {W/m-K}
40,	!- Density {kg/m3}
1450,	!- Specific Heat {J/kg-K}
0.9,	!- Thermal Absorptance
0.7,	!- Solar Absorptance
1;	!- Visible Absorptance

Material,
am1metal\4,	!- Name
MediumSmooth,	!- Roughness
0.006,	!- Thickness {m}
43,	!- Conductivity {W/m-K}
7800,	!- Density {kg/m3}
500,	!- Specific Heat {J/kg-K}
0.25,	!- Thermal Absorptance
0.53,	!- Solar Absorptance
1;	!- Visible Absorptance

Material,
Carpet and rubber pad,	!- Name
MediumSmooth,	!- Roughness
0.0127,	!- Thickness {m}
0.05862923,	!- Conductivity {W/m-K}
288.3323,	!- Density {kg/m3}
1381.644,	!- Specific Heat {J/kg-K}
0.9,	!- Thermal Absorptance
0.7,	!- Solar Absorptance
0.7;	!- Visible Absorptance

Material,
Concrete,	!- Name
MediumSmooth,	!- Roughness
0.2,	!- Thickness {m}
2.362453,	!- Conductivity {W/m-K}
2399.998,	!- Density {kg/m3}
921.0961,	!- Specific Heat {J/kg-K}
0.9,	!- Thermal Absorptance
0.65,	!- Solar Absorptance
0.65;	!- Visible Absorptance

Material,
R-25.0ci,	!- Name
MediumSmooth,	!- Roughness
0.14,	!- Thickness {m}
0.0346147,	!- Conductivity {W/m-K}
43.24985,	!- Density {kg/m3}
1214.172,	!- Specific Heat {J/kg-K}
0.9,	!- Thermal Absorptance
0.6,	!- Solar Absorptance
0.6;	!- Visible Absorptance

Material,
SHW or PV Panel,	!- Name
MediumSmooth,	!- Roughness
0.006,	!- Thickness {m}
0.01,	!- Conductivity {W/m-K}
480,	!- Density {kg/m3}
840,	!- Specific Heat {J/kg-K}
0.9,	!- Thermal Absorptance
0.9,	!- Solar Absorptance
0.9;	!- Visible Absorptance

Material,
Glass Fibre Insulation,	!- Name
MediumSmooth,	!- Roughness
0.16,	!- Thickness {m}
0.03807617,	!- Conductivity {W/m-K}
11.99783,	!- Density {kg/m3}
104.67,	!- Specific Heat {J/kg-K}
0.9,	!- Thermal Absorptance
0.6,	!- Solar Absorptance
0.6;	!- Visible Absorptance

Material,
Concrete Block SG 115-below grade,	!- Name
MediumSmooth,	!- Roughness
0.23,	!- Thickness {m}
1.315359,	!- Conductivity {W/m-K}
1842.123,	!- Density {kg/m3}
912.7225,	!- Specific Heat {J/kg-K}
0.9,	!- Thermal Absorptance
0.65,	!- Solar Absorptance
0.65;	!- Visible Absorptance

Material,
Gypsum board-below grade walls,	!- Name
MediumSmooth,	!- Roughness
0.0127,	!- Thickness {m}
0.1609583,	!- Conductivity {W/m-K}
800.9232,	!- Density {kg/m3}
1088.568,	!- Specific Heat {J/kg-K}
0.9,	!- Thermal Absorptance
0.4,	!- Solar Absorptance
0.4;	!- Visible Absorptance

Material,
Steel,	!- Name
MediumSmooth,	!- Roughness
0.0006,	!- Thickness {m}
60,	!- Conductivity {W/m-K}
7800,	!- Density {kg/m3}
450,	!- Specific Heat {J/kg-K}
0.9,	!- Thermal Absorptance
0.7,	!- Solar Absorptance
1;	!- Visible Absorptance

Material,
Plasterboard (wallboard),	!- Name
MediumSmooth,	!- Roughness
0.013,	!- Thickness {m}
0.21,	!- Conductivity {W/m-K}
900,	!- Density {kg/m3}
1000,	!- Specific Heat {J/kg-K}
0.9,	!- Thermal Absorptance
0.7,	!- Solar Absorptance
1;	!- Visible Absorptance

Material,
Mineral wool batt. 140 mm,	!- Name
MediumSmooth,	!- Roughness
0.2941177,	!- Thickness {m}
0.04,	!- Conductivity {W/m-K}
24,	!- Density {kg/m3}
1030,	!- Specific Heat {J/kg-K}
0.9,	!- Thermal Absorptance
0.7,	!- Solar Absorptance
1;	!- Visible Absorptance


!-   ===========  ALL OBJECTS IN CLASS: MATERIAL:INFRAREDTRANSPARENT ===========

Material:InfraredTransparent,
IRTMaterial;	!- Name


!-   ===========  ALL OBJECTS IN CLASS: MATERIAL:AIRGAP ===========

Material:AirGap,
Air. 50mm floor,	!- Name
0.2125022;	!- Thermal Resistance {m2-K/W}

Material:AirGap,
Air. 50mm wall,	!- Name
0.18329;	!- Thermal Resistance {m2-K/W}

Material:AirGap,
Air. 50mm ceiling,	!- Name
0.1624475;	!- Thermal Resistance {m2-K/W}


!-   ===========  ALL OBJECTS IN CLASS: WINDOWMATERIAL:GLAZING ===========

WindowMaterial:Glazing,
Side Lit Glazing Inner Pane,	!- Name
SpectralAverage,	!- Optical Data Type
,	!- Window Glass Spectral Data Set Name
0.006,	!- Thickness {m}
0.783,	!- Solar Transmittance at Normal Incidence
0.072,	!- Front Side Solar Reflectance at Normal Incidence
0.072,	!- Back Side Solar Reflectance at Normal Incidence
0.889,	!- Visible Transmittance at Normal Incidence
0.081,	!- Front Side Visible Reflectance at Normal Incidence
0.081,	!- Back Side Visible Reflectance at Normal Incidence
0.0,	!- Infrared Transmittance at Normal Incidence
0.837,	!- Front Side Infrared Hemispherical Emissivity
0.837,	!- Back Side Infrared Hemispherical Emissivity
1;	!- Conductivity {W/m-K}

WindowMaterial:Glazing,
Side Lit Glazing Outer Pane,	!- Name
SpectralAverage,	!- Optical Data Type
,	!- Window Glass Spectral Data Set Name
0.006,	!- Thickness {m}
0.409,	!- Solar Transmittance at Normal Incidence
0.289,	!- Front Side Solar Reflectance at Normal Incidence
0.414,	!- Back Side Solar Reflectance at Normal Incidence
0.798,	!- Visible Transmittance at Normal Incidence
0.051,	!- Front Side Visible Reflectance at Normal Incidence
0.04,	!- Back Side Visible Reflectance at Normal Incidence
0.0,	!- Infrared Transmittance at Normal Incidence
0.837,	!- Front Side Infrared Hemispherical Emissivity
0.042,	!- Back Side Infrared Hemispherical Emissivity
1;	!- Conductivity {W/m-K}

WindowMaterial:Glazing,
Roof Lit Glazing Inner Pane,	!- Name
SpectralAverage,	!- Optical Data Type
,	!- Window Glass Spectral Data Set Name
0.006,	!- Thickness {m}
0.783,	!- Solar Transmittance at Normal Incidence
0.072,	!- Front Side Solar Reflectance at Normal Incidence
0.072,	!- Back Side Solar Reflectance at Normal Incidence
0.889,	!- Visible Transmittance at Normal Incidence
0.081,	!- Front Side Visible Reflectance at Normal Incidence
0.081,	!- Back Side Visible Reflectance at Normal Incidence
0.0,	!- Infrared Transmittance at Normal Incidence
0.837,	!- Front Side Infrared Hemispherical Emissivity
0.837,	!- Back Side Infrared Hemispherical Emissivity
1;	!- Conductivity {W/m-K}

WindowMaterial:Glazing,
Roof Lit Glazing Outer Pane,	!- Name
SpectralAverage,	!- Optical Data Type
,	!- Window Glass Spectral Data Set Name
0.006,	!- Thickness {m}
0.58,	!- Solar Transmittance at Normal Incidence
0.186,	!- Front Side Solar Reflectance at Normal Incidence
0.227,	!- Back Side Solar Reflectance at Normal Incidence
0.665,	!- Visible Transmittance at Normal Incidence
0.254,	!- Front Side Visible Reflectance at Normal Incidence
0.285,	!- Back Side Visible Reflectance at Normal Incidence
0.0,	!- Infrared Transmittance at Normal Incidence
0.837,	!- Front Side Infrared Hemispherical Emissivity
0.209,	!- Back Side Infrared Hemispherical Emissivity
1;	!- Conductivity {W/m-K}


!-   ===========  ALL OBJECTS IN CLASS: WINDOWMATERIAL:GAS ===========

WindowMaterial:Gas,
12mm Argon Side Lit,	!- Name
Air,	!- Gas Type
0.012;	!- Thickness {m}

WindowMaterial:Gas,
12mm Argon Roof Lit,	!- Name
Air,	!- Gas Type
0.012;	!- Thickness {m}


!-   ===========  ALL OBJECTS IN CLASS: CONSTRUCTION ===========

Construction,
External Wall,	!- Name
Rainscreen,	!- Outside Layer
Air. 50mm wall,	!- Layer 2
Insulation 3,	!- Layer 3
Cement bonded particle board,	!- Layer 4
Air. 50mm wall,	!- Layer 5
Plasterboard;	!- Layer 6

Construction,
Glazing,	!- Name
Side Lit Glazing Outer Pane,	!- Outside Layer
12mm Argon Side Lit,	!- Layer 2
Side Lit Glazing Inner Pane;	!- Layer 3

Construction,
Internal Floor,	!- Name
chipboard flooring,	!- Outside Layer
Air. 50mm ceiling,	!- Layer 2
Screed,	!- Layer 3
Reinforced concrete,	!- Layer 4
Air. 50mm ceiling,	!- Layer 5
Plasterboard;	!- Layer 6

Construction,
Internal Wall,	!- Name
Plasterboard,	!- Outside Layer
Air. 50mm wall,	!- Layer 2
Plasterboard;	!- Layer 3

Construction,
Roof,	!- Name
Insulation 1,	!- Outside Layer
membrane,	!- Layer 2
Concrete Deck,	!- Layer 3
Air. 50mm ceiling,	!- Layer 4
Plasterboard;	!- Layer 5

Construction,
Slab on Grade,	!- Name
Notional/Reference Soil,	!- Outside Layer
R-25.0ci,	!- Layer 2
Concrete,	!- Layer 3
Carpet and rubber pad;	!- Layer 4

Construction,
Underground Wall,	!- Name
Notional/Reference Soil,	!- Outside Layer
Concrete Block SG 115-below grade,	!- Layer 2
Glass Fibre Insulation,	!- Layer 3
Gypsum board-below grade walls;	!- Layer 4

Construction,
IRTConstruction,	!- Name
IRTMaterial;	!- Outside Layer


!-   ===========  ALL OBJECTS IN CLASS: ZONE ===========

Zone,
00_100 Riser_2,	!- Name
0.0000,	!- Direction of Relative North {deg}
0.0000,	!- X Origin {m}
0.0000,	!- Y Origin {m}
0.0000,	!- Z Origin {m}
1,	!- Type
1.0000,	!- Multiplier
autocalculate,	!- Ceiling Height {m}
5.248957,	!- Volume {m3}
1.363366,	!- Floor Area {m2}
,	!- Zone Inside Convection Algorithm
,	!- Zone Outside Convection Algorithm
Yes;	!- Part of Total Floor Area

Zone,
00_101 Switch_Room,	!- Name
0.0000,	!- Direction of Relative North {deg}
0.0000,	!- X Origin {m}
0.0000,	!- Y Origin {m}
0.0000,	!- Z Origin {m}
1,	!- Type
1.0000,	!- Multiplier
autocalculate,	!- Ceiling Height {m}
36.37183,	!- Volume {m3}
9.447229,	!- Floor Area {m2}
,	!- Zone Inside Convection Algorithm
,	!- Zone Outside Convection Algorithm
Yes;	!- Part of Total Floor Area

Zone,
00_102 Waste,	!- Name
0.0000,	!- Direction of Relative North {deg}
0.0000,	!- X Origin {m}
0.0000,	!- Y Origin {m}
0.0000,	!- Z Origin {m}
1,	!- Type
1.0000,	!- Multiplier
autocalculate,	!- Ceiling Height {m}
83.3881,	!- Volume {m3}
21.65925,	!- Floor Area {m2}
,	!- Zone Inside Convection Algorithm
,	!- Zone Outside Convection Algorithm
Yes;	!- Part of Total Floor Area

Zone,
00_103 Substation,	!- Name
0.0000,	!- Direction of Relative North {deg}
0.0000,	!- X Origin {m}
0.0000,	!- Y Origin {m}
0.0000,	!- Z Origin {m}
1,	!- Type
1.0000,	!- Multiplier
autocalculate,	!- Ceiling Height {m}
60.49409,	!- Volume {m3}
15.71275,	!- Floor Area {m2}
,	!- Zone Inside Convection Algorithm
,	!- Zone Outside Convection Algorithm
Yes;	!- Part of Total Floor Area

Zone,
00_104 Riser_3,	!- Name
0.0000,	!- Direction of Relative North {deg}
0.0000,	!- X Origin {m}
0.0000,	!- Y Origin {m}
0.0000,	!- Z Origin {m}
1,	!- Type
1.0000,	!- Multiplier
autocalculate,	!- Ceiling Height {m}
6.063465,	!- Volume {m3}
1.574926,	!- Floor Area {m2}
,	!- Zone Inside Convection Algorithm
,	!- Zone Outside Convection Algorithm
Yes;	!- Part of Total Floor Area

Zone,
00_105 Riser_4,	!- Name
0.0000,	!- Direction of Relative North {deg}
0.0000,	!- X Origin {m}
0.0000,	!- Y Origin {m}
0.0000,	!- Z Origin {m}
1,	!- Type
1.0000,	!- Multiplier
autocalculate,	!- Ceiling Height {m}
7.276158,	!- Volume {m3}
1.889911,	!- Floor Area {m2}
,	!- Zone Inside Convection Algorithm
,	!- Zone Outside Convection Algorithm
Yes;	!- Part of Total Floor Area

Zone,
00_106 Lift,	!- Name
0.0000,	!- Direction of Relative North {deg}
0.0000,	!- X Origin {m}
0.0000,	!- Y Origin {m}
0.0000,	!- Z Origin {m}
1,	!- Type
1.0000,	!- Multiplier
autocalculate,	!- Ceiling Height {m}
23.04152,	!- Volume {m3}
5.984812,	!- Floor Area {m2}
,	!- Zone Inside Convection Algorithm
,	!- Zone Outside Convection Algorithm
Yes;	!- Part of Total Floor Area

Zone,
00_107 Waste,	!- Name
0.0000,	!- Direction of Relative North {deg}
0.0000,	!- X Origin {m}
0.0000,	!- Y Origin {m}
0.0000,	!- Z Origin {m}
1,	!- Type
1.0000,	!- Multiplier
autocalculate,	!- Ceiling Height {m}
68.03239,	!- Volume {m3}
17.67075,	!- Floor Area {m2}
,	!- Zone Inside Convection Algorithm
,	!- Zone Outside Convection Algorithm
Yes;	!- Part of Total Floor Area

Zone,
00_108 Staircase_Unit_1,	!- Name
0.0000,	!- Direction of Relative North {deg}
0.0000,	!- X Origin {m}
0.0000,	!- Y Origin {m}
0.0000,	!- Z Origin {m}
1,	!- Type
1.0000,	!- Multiplier
autocalculate,	!- Ceiling Height {m}
54.90929,	!- Volume {m3}
14.26215,	!- Floor Area {m2}
,	!- Zone Inside Convection Algorithm
,	!- Zone Outside Convection Algorithm
Yes;	!- Part of Total Floor Area

Zone,
00_109 Lobby,	!- Name
0.0000,	!- Direction of Relative North {deg}
0.0000,	!- X Origin {m}
0.0000,	!- Y Origin {m}
0.0000,	!- Z Origin {m}
1,	!- Type
1.0000,	!- Multiplier
autocalculate,	!- Ceiling Height {m}
41.89169,	!- Volume {m3}
10.88096,	!- Floor Area {m2}
,	!- Zone Inside Convection Algorithm
,	!- Zone Outside Convection Algorithm
Yes;	!- Part of Total Floor Area

Zone,
00_110 Unit_4_Shop,	!- Name
0.0000,	!- Direction of Relative North {deg}
0.0000,	!- X Origin {m}
0.0000,	!- Y Origin {m}
0.0000,	!- Z Origin {m}
1,	!- Type
1.0000,	!- Multiplier
autocalculate,	!- Ceiling Height {m}
54.31216,	!- Volume {m3}
14.10706,	!- Floor Area {m2}
,	!- Zone Inside Convection Algorithm
,	!- Zone Outside Convection Algorithm
Yes;	!- Part of Total Floor Area

Zone,
00_111 Lift,	!- Name
0.0000,	!- Direction of Relative North {deg}
0.0000,	!- X Origin {m}
0.0000,	!- Y Origin {m}
0.0000,	!- Z Origin {m}
1,	!- Type
1.0000,	!- Multiplier
autocalculate,	!- Ceiling Height {m}
8.845991,	!- Volume {m3}
2.29766,	!- Floor Area {m2}
,	!- Zone Inside Convection Algorithm
,	!- Zone Outside Convection Algorithm
Yes;	!- Part of Total Floor Area

Zone,
00_112 Unit_3_Shop,	!- Name
0.0000,	!- Direction of Relative North {deg}
0.0000,	!- X Origin {m}
0.0000,	!- Y Origin {m}
0.0000,	!- Z Origin {m}
1,	!- Type
1.0000,	!- Multiplier
autocalculate,	!- Ceiling Height {m}
57.0552,	!- Volume {m3}
14.81953,	!- Floor Area {m2}
,	!- Zone Inside Convection Algorithm
,	!- Zone Outside Convection Algorithm
Yes;	!- Part of Total Floor Area

Zone,
00_113 Unit_2_Shop,	!- Name
0.0000,	!- Direction of Relative North {deg}
0.0000,	!- X Origin {m}
0.0000,	!- Y Origin {m}
0.0000,	!- Z Origin {m}
1,	!- Type
1.0000,	!- Multiplier
autocalculate,	!- Ceiling Height {m}
79.83959,	!- Volume {m3}
20.73755,	!- Floor Area {m2}
,	!- Zone Inside Convection Algorithm
,	!- Zone Outside Convection Algorithm
Yes;	!- Part of Total Floor Area

Zone,
00_114 Lift,	!- Name
0.0000,	!- Direction of Relative North {deg}
0.0000,	!- X Origin {m}
0.0000,	!- Y Origin {m}
0.0000,	!- Z Origin {m}
1,	!- Type
1.0000,	!- Multiplier
autocalculate,	!- Ceiling Height {m}
14.49358,	!- Volume {m3}
3.764566,	!- Floor Area {m2}
,	!- Zone Inside Convection Algorithm
,	!- Zone Outside Convection Algorithm
Yes;	!- Part of Total Floor Area

Zone,
00_115 Unit_1_BOH,	!- Name
0.0000,	!- Direction of Relative North {deg}
0.0000,	!- X Origin {m}
0.0000,	!- Y Origin {m}
0.0000,	!- Z Origin {m}
1,	!- Type
1.0000,	!- Multiplier
autocalculate,	!- Ceiling Height {m}
16.92901,	!- Volume {m3}
4.397146,	!- Floor Area {m2}
,	!- Zone Inside Convection Algorithm
,	!- Zone Outside Convection Algorithm
Yes;	!- Part of Total Floor Area

Zone,
00_116 Unit_1_BOH,	!- Name
0.0000,	!- Direction of Relative North {deg}
0.0000,	!- X Origin {m}
0.0000,	!- Y Origin {m}
0.0000,	!- Z Origin {m}
1,	!- Type
1.0000,	!- Multiplier
autocalculate,	!- Ceiling Height {m}
31.40725,	!- Volume {m3}
8.157728,	!- Floor Area {m2}
,	!- Zone Inside Convection Algorithm
,	!- Zone Outside Convection Algorithm
Yes;	!- Part of Total Floor Area

Zone,
00_117 Lift,	!- Name
0.0000,	!- Direction of Relative North {deg}
0.0000,	!- X Origin {m}
0.0000,	!- Y Origin {m}
0.0000,	!- Z Origin {m}
1,	!- Type
1.0000,	!- Multiplier
autocalculate,	!- Ceiling Height {m}
14.38019,	!- Volume {m3}
3.735114,	!- Floor Area {m2}
,	!- Zone Inside Convection Algorithm
,	!- Zone Outside Convection Algorithm
Yes;	!- Part of Total Floor Area

Zone,
00_118 Unit_8_Restaurant,	!- Name
0.0000,	!- Direction of Relative North {deg}
0.0000,	!- X Origin {m}
0.0000,	!- Y Origin {m}
0.0000,	!- Z Origin {m}
1,	!- Type
1.0000,	!- Multiplier
autocalculate,	!- Ceiling Height {m}
225.0949,	!- Volume {m3}
58.46621,	!- Floor Area {m2}
,	!- Zone Inside Convection Algorithm
,	!- Zone Outside Convection Algorithm
Yes;	!- Part of Total Floor Area

Zone,
00_119 Unit_1_Retail_MS,	!- Name
0.0000,	!- Direction of Relative North {deg}
0.0000,	!- X Origin {m}
0.0000,	!- Y Origin {m}
0.0000,	!- Z Origin {m}
1,	!- Type
1.0000,	!- Multiplier
autocalculate,	!- Ceiling Height {m}
769.6988,	!- Volume {m3}
199.9218,	!- Floor Area {m2}
,	!- Zone Inside Convection Algorithm
,	!- Zone Outside Convection Algorithm
Yes;	!- Part of Total Floor Area

Zone,
00_120 Unit_7_Bar,	!- Name
0.0000,	!- Direction of Relative North {deg}
0.0000,	!- X Origin {m}
0.0000,	!- Y Origin {m}
0.0000,	!- Z Origin {m}
1,	!- Type
1.0000,	!- Multiplier
autocalculate,	!- Ceiling Height {m}
71.53764,	!- Volume {m3}
18.58121,	!- Floor Area {m2}
,	!- Zone Inside Convection Algorithm
,	!- Zone Outside Convection Algorithm
Yes;	!- Part of Total Floor Area

Zone,
00_121 Lift,	!- Name
0.0000,	!- Direction of Relative North {deg}
0.0000,	!- X Origin {m}
0.0000,	!- Y Origin {m}
0.0000,	!- Z Origin {m}
1,	!- Type
1.0000,	!- Multiplier
autocalculate,	!- Ceiling Height {m}
8.145554,	!- Volume {m3}
2.115728,	!- Floor Area {m2}
,	!- Zone Inside Convection Algorithm
,	!- Zone Outside Convection Algorithm
Yes;	!- Part of Total Floor Area

Zone,
00_122 Unit_6_Shop,	!- Name
0.0000,	!- Direction of Relative North {deg}
0.0000,	!- X Origin {m}
0.0000,	!- Y Origin {m}
0.0000,	!- Z Origin {m}
1,	!- Type
1.0000,	!- Multiplier
autocalculate,	!- Ceiling Height {m}
106.3668,	!- Volume {m3}
27.62773,	!- Floor Area {m2}
,	!- Zone Inside Convection Algorithm
,	!- Zone Outside Convection Algorithm
Yes;	!- Part of Total Floor Area

Zone,
00_123 Unit_5_Coffee_Shop,	!- Name
0.0000,	!- Direction of Relative North {deg}
0.0000,	!- X Origin {m}
0.0000,	!- Y Origin {m}
0.0000,	!- Z Origin {m}
1,	!- Type
1.0000,	!- Multiplier
autocalculate,	!- Ceiling Height {m}
179.3449,	!- Volume {m3}
46.58309,	!- Floor Area {m2}
,	!- Zone Inside Convection Algorithm
,	!- Zone Outside Convection Algorithm
Yes;	!- Part of Total Floor Area

Zone,
00_124 Lift,	!- Name
0.0000,	!- Direction of Relative North {deg}
0.0000,	!- X Origin {m}
0.0000,	!- Y Origin {m}
0.0000,	!- Z Origin {m}
1,	!- Type
1.0000,	!- Multiplier
autocalculate,	!- Ceiling Height {m}
8.33135,	!- Volume {m3}
2.163987,	!- Floor Area {m2}
,	!- Zone Inside Convection Algorithm
,	!- Zone Outside Convection Algorithm
Yes;	!- Part of Total Floor Area

Zone,
00_125 Staircase_Unit_7,	!- Name
0.0000,	!- Direction of Relative North {deg}
0.0000,	!- X Origin {m}
0.0000,	!- Y Origin {m}
0.0000,	!- Z Origin {m}
1,	!- Type
1.0000,	!- Multiplier
autocalculate,	!- Ceiling Height {m}
26.85205,	!- Volume {m3}
6.974558,	!- Floor Area {m2}
,	!- Zone Inside Convection Algorithm
,	!- Zone Outside Convection Algorithm
Yes;	!- Part of Total Floor Area

Zone,
00_126 Staircase_Unit_8,	!- Name
0.0000,	!- Direction of Relative North {deg}
0.0000,	!- X Origin {m}
0.0000,	!- Y Origin {m}
0.0000,	!- Z Origin {m}
1,	!- Type
1.0000,	!- Multiplier
autocalculate,	!- Ceiling Height {m}
41.01459,	!- Volume {m3}
10.65314,	!- Floor Area {m2}
,	!- Zone Inside Convection Algorithm
,	!- Zone Outside Convection Algorithm
Yes;	!- Part of Total Floor Area

Zone,
00_127 Riser_Smoke,	!- Name
0.0000,	!- Direction of Relative North {deg}
0.0000,	!- X Origin {m}
0.0000,	!- Y Origin {m}
0.0000,	!- Z Origin {m}
1,	!- Type
1.0000,	!- Multiplier
autocalculate,	!- Ceiling Height {m}
13.67712,	!- Volume {m3}
3.5525,	!- Floor Area {m2}
,	!- Zone Inside Convection Algorithm
,	!- Zone Outside Convection Algorithm
Yes;	!- Part of Total Floor Area

Zone,
00_128 Staircase_Lobby,	!- Name
0.0000,	!- Direction of Relative North {deg}
0.0000,	!- X Origin {m}
0.0000,	!- Y Origin {m}
0.0000,	!- Z Origin {m}
1,	!- Type
1.0000,	!- Multiplier
autocalculate,	!- Ceiling Height {m}
39.85086,	!- Volume {m3}
10.35087,	!- Floor Area {m2}
,	!- Zone Inside Convection Algorithm
,	!- Zone Outside Convection Algorithm
Yes;	!- Part of Total Floor Area

Zone,
00_129 Unit_1_Retail_MS,	!- Name
0.0000,	!- Direction of Relative North {deg}
0.0000,	!- X Origin {m}
0.0000,	!- Y Origin {m}
0.0000,	!- Z Origin {m}
1,	!- Type
1.0000,	!- Multiplier
autocalculate,	!- Ceiling Height {m}
550.3442,	!- Volume {m3}
142.9465,	!- Floor Area {m2}
,	!- Zone Inside Convection Algorithm
,	!- Zone Outside Convection Algorithm
Yes;	!- Part of Total Floor Area

Zone,
00_130 Unit_1_Retail_MS,	!- Name
0.0000,	!- Direction of Relative North {deg}
0.0000,	!- X Origin {m}
0.0000,	!- Y Origin {m}
0.0000,	!- Z Origin {m}
1,	!- Type
1.0000,	!- Multiplier
autocalculate,	!- Ceiling Height {m}
494.9741,	!- Volume {m3}
128.5647,	!- Floor Area {m2}
,	!- Zone Inside Convection Algorithm
,	!- Zone Outside Convection Algorithm
Yes;	!- Part of Total Floor Area

Zone,
01_100 Lift,	!- Name
0.0000,	!- Direction of Relative North {deg}
0.0000,	!- X Origin {m}
0.0000,	!- Y Origin {m}
0.0000,	!- Z Origin {m}
1,	!- Type
1.0000,	!- Multiplier
autocalculate,	!- Ceiling Height {m}
12.7708,	!- Volume {m3}
3.929476,	!- Floor Area {m2}
,	!- Zone Inside Convection Algorithm
,	!- Zone Outside Convection Algorithm
Yes;	!- Part of Total Floor Area

Zone,
01_101 Riser_2,	!- Name
0.0000,	!- Direction of Relative North {deg}
0.0000,	!- X Origin {m}
0.0000,	!- Y Origin {m}
0.0000,	!- Z Origin {m}
1,	!- Type
1.0000,	!- Multiplier
autocalculate,	!- Ceiling Height {m}
5.118509,	!- Volume {m3}
1.574926,	!- Floor Area {m2}
,	!- Zone Inside Convection Algorithm
,	!- Zone Outside Convection Algorithm
Yes;	!- Part of Total Floor Area

Zone,
01_102 Riser_3,	!- Name
0.0000,	!- Direction of Relative North {deg}
0.0000,	!- X Origin {m}
0.0000,	!- Y Origin {m}
0.0000,	!- Z Origin {m}
1,	!- Type
1.0000,	!- Multiplier
autocalculate,	!- Ceiling Height {m}
6.142211,	!- Volume {m3}
1.889911,	!- Floor Area {m2}
,	!- Zone Inside Convection Algorithm
,	!- Zone Outside Convection Algorithm
Yes;	!- Part of Total Floor Area

Zone,
01_103 Lift,	!- Name
0.0000,	!- Direction of Relative North {deg}
0.0000,	!- X Origin {m}
0.0000,	!- Y Origin {m}
0.0000,	!- Z Origin {m}
1,	!- Type
1.0000,	!- Multiplier
autocalculate,	!- Ceiling Height {m}
7.467395,	!- Volume {m3}
2.29766,	!- Floor Area {m2}
,	!- Zone Inside Convection Algorithm
,	!- Zone Outside Convection Algorithm
Yes;	!- Part of Total Floor Area

Zone,
01_104 Riser_4,	!- Name
0.0000,	!- Direction of Relative North {deg}
0.0000,	!- X Origin {m}
0.0000,	!- Y Origin {m}
0.0000,	!- Z Origin {m}
1,	!- Type
1.0000,	!- Multiplier
autocalculate,	!- Ceiling Height {m}
4.826023,	!- Volume {m3}
1.48493,	!- Floor Area {m2}
,	!- Zone Inside Convection Algorithm
,	!- Zone Outside Convection Algorithm
Yes;	!- Part of Total Floor Area

Zone,
01_105 Riser_1,	!- Name
0.0000,	!- Direction of Relative North {deg}
0.0000,	!- X Origin {m}
0.0000,	!- Y Origin {m}
0.0000,	!- Z Origin {m}
1,	!- Type
1.0000,	!- Multiplier
autocalculate,	!- Ceiling Height {m}
4.430938,	!- Volume {m3}
1.363366,	!- Floor Area {m2}
,	!- Zone Inside Convection Algorithm
,	!- Zone Outside Convection Algorithm
Yes;	!- Part of Total Floor Area

Zone,
01_106 Shared_Lobby_Entrance,	!- Name
0.0000,	!- Direction of Relative North {deg}
0.0000,	!- X Origin {m}
0.0000,	!- Y Origin {m}
0.0000,	!- Z Origin {m}
1,	!- Type
1.0000,	!- Multiplier
autocalculate,	!- Ceiling Height {m}
80.49271,	!- Volume {m3}
24.76699,	!- Floor Area {m2}
,	!- Zone Inside Convection Algorithm
,	!- Zone Outside Convection Algorithm
Yes;	!- Part of Total Floor Area

Zone,
01_107 Riser_Smoke,	!- Name
0.0000,	!- Direction of Relative North {deg}
0.0000,	!- X Origin {m}
0.0000,	!- Y Origin {m}
0.0000,	!- Z Origin {m}
1,	!- Type
1.0000,	!- Multiplier
autocalculate,	!- Ceiling Height {m}
11.54562,	!- Volume {m3}
3.5525,	!- Floor Area {m2}
,	!- Zone Inside Convection Algorithm
,	!- Zone Outside Convection Algorithm
Yes;	!- Part of Total Floor Area

Zone,
01_108 Unit_6_Shop,	!- Name
0.0000,	!- Direction of Relative North {deg}
0.0000,	!- X Origin {m}
0.0000,	!- Y Origin {m}
0.0000,	!- Z Origin {m}
1,	!- Type
1.0000,	!- Multiplier
autocalculate,	!- Ceiling Height {m}
467.6522,	!- Volume {m3}
143.893,	!- Floor Area {m2}
,	!- Zone Inside Convection Algorithm
,	!- Zone Outside Convection Algorithm
Yes;	!- Part of Total Floor Area

Zone,
01_109 Staircase_Unit_8,	!- Name
0.0000,	!- Direction of Relative North {deg}
0.0000,	!- X Origin {m}
0.0000,	!- Y Origin {m}
0.0000,	!- Z Origin {m}
1,	!- Type
1.0000,	!- Multiplier
autocalculate,	!- Ceiling Height {m}
34.62271,	!- Volume {m3}
10.65314,	!- Floor Area {m2}
,	!- Zone Inside Convection Algorithm
,	!- Zone Outside Convection Algorithm
Yes;	!- Part of Total Floor Area

Zone,
01_110 Void,	!- Name
0.0000,	!- Direction of Relative North {deg}
0.0000,	!- X Origin {m}
0.0000,	!- Y Origin {m}
0.0000,	!- Z Origin {m}
1,	!- Type
1.0000,	!- Multiplier
autocalculate,	!- Ceiling Height {m}
15.74575,	!- Volume {m3}
4.844848,	!- Floor Area {m2}
,	!- Zone Inside Convection Algorithm
,	!- Zone Outside Convection Algorithm
Yes;	!- Part of Total Floor Area

Zone,
01_111 Void,	!- Name
0.0000,	!- Direction of Relative North {deg}
0.0000,	!- X Origin {m}
0.0000,	!- Y Origin {m}
0.0000,	!- Z Origin {m}
1,	!- Type
1.0000,	!- Multiplier
autocalculate,	!- Ceiling Height {m}
9.262199,	!- Volume {m3}
2.849907,	!- Floor Area {m2}
,	!- Zone Inside Convection Algorithm
,	!- Zone Outside Convection Algorithm
Yes;	!- Part of Total Floor Area

Zone,