
OS:Version,
  {f6bc1c85-25d8-435f-9887-d9c1f1f5135d}, !- Handle
  2.3.0;                                  !- Version Identifier

OS:Site,
  {50c61b2f-6a05-41b8-8d2b-e26dade1f854}, !- Handle
  SAN_FRANCISCO,                          !- Name
  37.62,                                  !- Latitude {deg}
  -122.38,                                !- Longitude {deg}
  -8,                                     !- Time Zone {hr}
  5,                                      !- Elevation {m}
  ;                                       !- Terrain

OS:YearDescription,
  {fb070a68-3b98-4bfa-a565-03d134fd53e0}, !- Handle
  ,                                       !- Calendar Year
  Sunday;                                 !- Day of Week for Start Day

OS:ClimateZones,
  {07410d0f-6b64-4f0e-ac5c-13f524a5de45}, !- Handle
  ,                                       !- Active Institution
  ,                                       !- Active Year
  ,                                       !- Climate Zone Institution Name 1
  ,                                       !- Climate Zone Document Name 1
  ,                                       !- Climate Zone Document Year 1
  ,                                       !- Climate Zone Value 1
  CEC,                                    !- Climate Zone Institution Name 2
  California Climate Zone Descriptions,   !- Climate Zone Document Name 2
  1995,                                   !- Climate Zone Document Year 2
  ;                                       !- Climate Zone Value 2

OS:Building,
  {99579e05-6758-48ac-9720-464085ae98d2}, !- Handle
  Building 1,                             !- Name
  ,                                       !- Building Sector Type
  ,                                       !- North Axis {deg}
  ,                                       !- Nominal Floor to Floor Height {m}
  ,                                       !- Space Type Name
  ,                                       !- Default Construction Set Name
  ;                                       !- Default Schedule Set Name

OS:Facility,
  {4553bd00-a36e-47d2-ba25-9acead1afcb1}; !- Handle

OS:SimulationControl,
  {61050956-e1fd-42d2-a1cc-fc8bbe068354}; !- Handle

OS:Sizing:Parameters,
  {f5111eea-84a1-44c0-a5ad-ed901d6e4387}, !- Handle
  1.25,                                   !- Heating Sizing Factor
  1.15;                                   !- Cooling Sizing Factor

OS:Timestep,
  {ad5f7967-aa73-4e51-adbc-d800eb80bda2}, !- Handle
  6;                                      !- Number of Timesteps per Hour

OS:ShadowCalculation,
  {9eb12918-1c06-405d-adf9-aa3c98d67a99}, !- Handle
  20,                                     !- Calculation Frequency
  15000;                                  !- Maximum Figures in Shadow Overlap Calculations

OS:HeatBalanceAlgorithm,
  {01a0ba64-181e-4ddc-9cf2-234f26b44cb4}, !- Handle
  ConductionTransferFunction,             !- Algorithm
  200;                                    !- Surface Temperature Upper Limit {C}

OS:RunPeriod,
  {a4ecf67d-cb2d-4b29-a76a-0cc330bc1441}, !- Handle
  Run Period 1,                           !- Name
  1,                                      !- Begin Month
  1,                                      !- Begin Day of Month
  12,                                     !- End Month
  31,                                     !- End Day of Month
  ,                                       !- Use Weather File Holidays and Special Days
  ,                                       !- Use Weather File Daylight Saving Period
  ,                                       !- Apply Weekend Holiday Rule
  ,                                       !- Use Weather File Rain Indicators
  ,                                       !- Use Weather File Snow Indicators
  ;                                       !- Number of Times Runperiod to be Repeated

OS:LifeCycleCost:Parameters,
  {020532cd-b1bd-415a-a04f-b524f6e726dc}, !- Handle
  ,                                       !- Analysis Type
  ,                                       !- Discounting Convention
  ,                                       !- Inflation Approach
  ,                                       !- Real Discount Rate
  ,                                       !- Nominal Discount Rate
  ,                                       !- Inflation
  ,                                       !- Base Date Month
  ,                                       !- Base Date Year
  ,                                       !- Service Date Month
  ,                                       !- Service Date Year
  ;                                       !- Length of Study Period in Years

OS:WeatherFile,
  {e515a195-a7f0-4f55-a8f1-83cf3f9fbfd2}, !- Handle
  SAN_FRANCISCO,                          !- City
  CA,                                     !- State Province Region
  USA,                                    !- Country
  TMY2-23234,                             !- Data Source
  724940,                                 !- WMO Number
  37.62,                                  !- Latitude {deg}
  -122.38,                                !- Longitude {deg}
  -8,                                     !- Time Zone {hr}
  5,                                      !- Elevation {m}
  file:USA_CA_San.Francisco.724940_TMY2.epw, !- Url
  5BED0FD3;                               !- Checksum

