
OS:Version,
  {59893803-ee5f-44a0-8f55-4f41a52c71cf}, !- Handle
  2.3.0;                                  !- Version Identifier

OS:ThermalZone,
  {64b8ba5c-fa2c-41c3-9634-28ce180e310a}, !- Handle
  Floor: 1 Zone: 1,                       !- Name
  ,                                       !- Multiplier
  ,                                       !- Ceiling Height {m}
  ,                                       !- Volume {m3}
  ,                                       !- Floor Area {m2}
  ,                                       !- Zone Inside Convection Algorithm
  ,                                       !- Zone Outside Convection Algorithm
  ,                                       !- Zone Conditioning Equipment List Name
  {2ecb84a7-26f1-4f23-a88f-e9e77530bf73}, !- Zone Air Inlet Port List
  {3c2843d6-748d-4670-94f7-8e46109fc5d4}, !- Zone Air Exhaust Port List
  {12598b36-1645-48bf-af60-c7a7b37b7bc0}, !- Zone Air Node Name
  ,                                       !- Zone Return Air Node Name
  ,                                       !- Primary Daylighting Control Name
  ,                                       !- Fraction of Zone Controlled by Primary Daylighting Control
  ,                                       !- Secondary Daylighting Control Name
  ,                                       !- Fraction of Zone Controlled by Secondary Daylighting Control
  ,                                       !- Illuminance Map Name
  ,                                       !- Group Rendering Name
  ,                                       !- Thermostat Name
  No;                                     !- Use Ideal Air Loads

OS:Node,
  {9f7f1259-a571-4aa5-bd36-faf5ae1e385f}, !- Handle
  {01514d91-55a3-404f-8eda-c02717b768df}, !- Name
  {12598b36-1645-48bf-af60-c7a7b37b7bc0}, !- Inlet Port
  ;                                       !- Outlet Port

OS:Connection,
  {12598b36-1645-48bf-af60-c7a7b37b7bc0}, !- Handle
  {87c4a8a1-d9dd-4220-88f2-175b1b6be338}, !- Name
  {64b8ba5c-fa2c-41c3-9634-28ce180e310a}, !- Source Object
  11,                                     !- Outlet Port
  {9f7f1259-a571-4aa5-bd36-faf5ae1e385f}, !- Target Object
  2;                                      !- Inlet Port

OS:PortList,
  {2ecb84a7-26f1-4f23-a88f-e9e77530bf73}, !- Handle
  {2ff48f22-f15a-46c3-bb09-5e8cebcc6cb8}, !- Name
  {64b8ba5c-fa2c-41c3-9634-28ce180e310a}; !- HVAC Component

OS:PortList,
  {3c2843d6-748d-4670-94f7-8e46109fc5d4}, !- Handle
  {7f8e762a-75a4-42a2-a08d-a8ef6fd8c528}, !- Name
  {64b8ba5c-fa2c-41c3-9634-28ce180e310a}; !- HVAC Component

OS:Sizing:Zone,
  {ced335e4-e6a4-4bd0-afa0-6cd21a96f213}, !- Handle
  {64b8ba5c-fa2c-41c3-9634-28ce180e310a}, !- Zone or ZoneList Name
  SupplyAirTemperature,                   !- Zone Cooling Design Supply Air Temperature Input Method
  14,                                     !- Zone Cooling Design Supply Air Temperature {C}
  11.11,                                  !- Zone Cooling Design Supply Air Temperature Difference {deltaC}
  SupplyAirTemperature,                   !- Zone Heating Design Supply Air Temperature Input Method
  40,                                     !- Zone Heating Design Supply Air Temperature {C}
  11.11,                                  !- Zone Heating Design Supply Air Temperature Difference {deltaC}
  0.0085,                                 !- Zone Cooling Design Supply Air Humidity Ratio {kg-H2O/kg-air}
  0.008,                                  !- Zone Heating Design Supply Air Humidity Ratio {kg-H2O/kg-air}
  ,                                       !- Zone Heating Sizing Factor
  ,                                       !- Zone Cooling Sizing Factor
  DesignDay,                              !- Cooling Design Air Flow Method
  ,                                       !- Cooling Design Air Flow Rate {m3/s}
  ,                                       !- Cooling Minimum Air Flow per Zone Floor Area {m3/s-m2}
  ,                                       !- Cooling Minimum Air Flow {m3/s}
  ,                                       !- Cooling Minimum Air Flow Fraction
  DesignDay,                              !- Heating Design Air Flow Method
  ,                                       !- Heating Design Air Flow Rate {m3/s}
  ,                                       !- Heating Maximum Air Flow per Zone Floor Area {m3/s-m2}
  ,                                       !- Heating Maximum Air Flow {m3/s}
  ,                                       !- Heating Maximum Air Flow Fraction
  ,                                       !- Design Zone Air Distribution Effectiveness in Cooling Mode
  ,                                       !- Design Zone Air Distribution Effectiveness in Heating Mode
  No,                                     !- Account for Dedicated Outdoor Air System
  NeutralSupplyAir,                       !- Dedicated Outdoor Air System Control Strategy
  autosize,                               !- Dedicated Outdoor Air Low Setpoint Temperature for Design {C}
  autosize;                               !- Dedicated Outdoor Air High Setpoint Temperature for Design {C}

OS:ZoneHVAC:EquipmentList,
  {e7ab14ab-b04b-42e5-a63d-95b4397b3cca}, !- Handle
  {7c4c1836-dca5-460e-b77f-0ed344d5578d}, !- Name
  {64b8ba5c-fa2c-41c3-9634-28ce180e310a}; !- Thermal Zone

OS:ThermalZone,
  {50a442bf-b8e7-42c1-8380-bb33b577e188}, !- Handle
  Floor: 1 Zone: 2,                       !- Name
  ,                                       !- Multiplier
  ,                                       !- Ceiling Height {m}
  ,                                       !- Volume {m3}
  ,                                       !- Floor Area {m2}
  ,                                       !- Zone Inside Convection Algorithm
  ,                                       !- Zone Outside Convection Algorithm
  ,                                       !- Zone Conditioning Equipment List Name
  {0810270a-7ad4-4096-a7d6-1bc728c01469}, !- Zone Air Inlet Port List
  {ede8419e-ef7d-4b26-865c-6df79707f115}, !- Zone Air Exhaust Port List
  {907d88bc-9a4c-46fb-ab48-972e2326d408}, !- Zone Air Node Name
  ,                                       !- Zone Return Air Node Name
  ,                                       !- Primary Daylighting Control Name
  ,                                       !- Fraction of Zone Controlled by Primary Daylighting Control
  ,                                       !- Secondary Daylighting Control Name
  ,                                       !- Fraction of Zone Controlled by Secondary Daylighting Control
  ,                                       !- Illuminance Map Name
  ,                                       !- Group Rendering Name
  ,                                       !- Thermostat Name
  No;                                     !- Use Ideal Air Loads

OS:Node,
  {035cdd72-4917-48b9-bc71-2bf41f453a98}, !- Handle
  {6445fe89-49ae-4b12-b013-1c608548f464}, !- Name
  {907d88bc-9a4c-46fb-ab48-972e2326d408}, !- Inlet Port
  ;                                       !- Outlet Port

OS:Connection,
  {907d88bc-9a4c-46fb-ab48-972e2326d408}, !- Handle
  {69e0e2de-28a6-4ae9-ae61-db411f057fa2}, !- Name
  {50a442bf-b8e7-42c1-8380-bb33b577e188}, !- Source Object
  11,                                     !- Outlet Port
  {035cdd72-4917-48b9-bc71-2bf41f453a98}, !- Target Object
  2;                                      !- Inlet Port

OS:PortList,
  {0810270a-7ad4-4096-a7d6-1bc728c01469}, !- Handle
  {5349cd3a-be4d-4a04-801c-ae43188bc79c}, !- Name
  {50a442bf-b8e7-42c1-8380-bb33b577e188}; !- HVAC Component

OS:PortList,
  {ede8419e-ef7d-4b26-865c-6df79707f115}, !- Handle
  {aa0470ce-19af-4ff0-8ce1-3e4716cabc64}, !- Name
  {50a442bf-b8e7-42c1-8380-bb33b577e188}; !- HVAC Component

OS:Sizing:Zone,
  {5ba70598-7df5-486c-a742-65cd531e6fa3}, !- Handle
  {50a442bf-b8e7-42c1-8380-bb33b577e188}, !- Zone or ZoneList Name
  SupplyAirTemperature,                   !- Zone Cooling Design Supply Air Temperature Input Method
  14,                                     !- Zone Cooling Design Supply Air Temperature {C}
  11.11,                                  !- Zone Cooling Design Supply Air Temperature Difference {deltaC}
  SupplyAirTemperature,                   !- Zone Heating Design Supply Air Temperature Input Method
  40,                                     !- Zone Heating Design Supply Air Temperature {C}
  11.11,                                  !- Zone Heating Design Supply Air Temperature Difference {deltaC}
  0.0085,                                 !- Zone Cooling Design Supply Air Humidity Ratio {kg-H2O/kg-air}
  0.008,                                  !- Zone Heating Design Supply Air Humidity Ratio {kg-H2O/kg-air}
  ,                                       !- Zone Heating Sizing Factor
  ,                                       !- Zone Cooling Sizing Factor
  DesignDay,                              !- Cooling Design Air Flow Method
  ,                                       !- Cooling Design Air Flow Rate {m3/s}
  ,                                       !- Cooling Minimum Air Flow per Zone Floor Area {m3/s-m2}
  ,                                       !- Cooling Minimum Air Flow {m3/s}
  ,                                       !- Cooling Minimum Air Flow Fraction
  DesignDay,                              !- Heating Design Air Flow Method
  ,                                       !- Heating Design Air Flow Rate {m3/s}
  ,                                       !- Heating Maximum Air Flow per Zone Floor Area {m3/s-m2}
  ,                                       !- Heating Maximum Air Flow {m3/s}
  ,                                       !- Heating Maximum Air Flow Fraction
  ,                                       !- Design Zone Air Distribution Effectiveness in Cooling Mode
  ,                                       !- Design Zone Air Distribution Effectiveness in Heating Mode
  No,                                     !- Account for Dedicated Outdoor Air System
  NeutralSupplyAir,                       !- Dedicated Outdoor Air System Control Strategy
  autosize,                               !- Dedicated Outdoor Air Low Setpoint Temperature for Design {C}
  autosize;                               !- Dedicated Outdoor Air High Setpoint Temperature for Design {C}

OS:ZoneHVAC:EquipmentList,
  {967d53e7-fd59-41de-b5b2-6c0b26f7bb0b}, !- Handle
  {734aea9e-e2ac-40be-9c44-883cf569c03f}, !- Name
  {50a442bf-b8e7-42c1-8380-bb33b577e188}; !- Thermal Zone

OS:ThermalZone,
  {498b024f-80f0-47a5-93aa-64bfca4b0229}, !- Handle
  Floor: 1 Zone: 3,                       !- Name
  ,                                       !- Multiplier
  ,                                       !- Ceiling Height {m}
  ,                                       !- Volume {m3}
  ,                                       !- Floor Area {m2}
  ,                                       !- Zone Inside Convection Algorithm
  ,                                       !- Zone Outside Convection Algorithm
  ,                                       !- Zone Conditioning Equipment List Name
  {6887a3b4-54e5-4f2c-a918-a837728d56ab}, !- Zone Air Inlet Port List
  {016c461e-c17c-4e78-a09f-a2c4e0ac06f9}, !- Zone Air Exhaust Port List
  {a6e0740b-6b13-45f1-affc-25626425b866}, !- Zone Air Node Name
  ,                                       !- Zone Return Air Node Name
  ,                                       !- Primary Daylighting Control Name
  ,                                       !- Fraction of Zone Controlled by Primary Daylighting Control
  ,                                       !- Secondary Daylighting Control Name
  ,                                       !- Fraction of Zone Controlled by Secondary Daylighting Control
  ,                                       !- Illuminance Map Name
  ,                                       !- Group Rendering Name
  ,                                       !- Thermostat Name
  No;                                     !- Use Ideal Air Loads

OS:Node,
  {c095d09c-e8b6-4946-b808-ec47bc6350d0}, !- Handle
  {5ef45e4b-7daf-4c99-893b-a8450f07419a}, !- Name
  {a6e0740b-6b13-45f1-affc-25626425b866}, !- Inlet Port
  ;                                       !- Outlet Port

OS:Connection,
  {a6e0740b-6b13-45f1-affc-25626425b866}, !- Handle
  {c36ec330-a780-44a7-8271-0f6c802f7a54}, !- Name
  {498b024f-80f0-47a5-93aa-64bfca4b0229}, !- Source Object
  11,                                     !- Outlet Port
  {c095d09c-e8b6-4946-b808-ec47bc6350d0}, !- Target Object
  2;                                      !- Inlet Port

OS:PortList,
  {6887a3b4-54e5-4f2c-a918-a837728d56ab}, !- Handle
  {bd435d11-7e38-4bdf-b1c3-2a95907774a2}, !- Name
  {498b024f-80f0-47a5-93aa-64bfca4b0229}; !- HVAC Component

OS:PortList,
  {016c461e-c17c-4e78-a09f-a2c4e0ac06f9}, !- Handle
  {062e89af-b331-4a76-945f-aaaa895dfea2}, !- Name
  {498b024f-80f0-47a5-93aa-64bfca4b0229}; !- HVAC Component

OS:Sizing:Zone,
  {66de6117-b3d5-4008-ad35-e54e27cfa334}, !- Handle
  {498b024f-80f0-47a5-93aa-64bfca4b0229}, !- Zone or ZoneList Name
  SupplyAirTemperature,                   !- Zone Cooling Design Supply Air Temperature Input Method
  14,                                     !- Zone Cooling Design Supply Air Temperature {C}
  11.11,                                  !- Zone Cooling Design Supply Air Temperature Difference {deltaC}
  SupplyAirTemperature,                   !- Zone Heating Design Supply Air Temperature Input Method
  40,                                     !- Zone Heating Design Supply Air Temperature {C}
  11.11,                                  !- Zone Heating Design Supply Air Temperature Difference {deltaC}
  0.0085,                                 !- Zone Cooling Design Supply Air Humidity Ratio {kg-H2O/kg-air}
  0.008,                                  !- Zone Heating Design Supply Air Humidity Ratio {kg-H2O/kg-air}
  ,                                       !- Zone Heating Sizing Factor
  ,                                       !- Zone Cooling Sizing Factor
  DesignDay,                              !- Cooling Design Air Flow Method
  ,                                       !- Cooling Design Air Flow Rate {m3/s}
  ,                                       !- Cooling Minimum Air Flow per Zone Floor Area {m3/s-m2}
  ,                                       !- Cooling Minimum Air Flow {m3/s}
  ,                                       !- Cooling Minimum Air Flow Fraction
  DesignDay,                              !- Heating Design Air Flow Method
  ,                                       !- Heating Design Air Flow Rate {m3/s}
  ,                                       !- Heating Maximum Air Flow per Zone Floor Area {m3/s-m2}
  ,                                       !- Heating Maximum Air Flow {m3/s}
  ,                                       !- Heating Maximum Air Flow Fraction
  ,                                       !- Design Zone Air Distribution Effectiveness in Cooling Mode
  ,                                       !- Design Zone Air Distribution Effectiveness in Heating Mode
  No,                                     !- Account for Dedicated Outdoor Air System
  NeutralSupplyAir,                       !- Dedicated Outdoor Air System Control Strategy
  autosize,                               !- Dedicated Outdoor Air Low Setpoint Temperature for Design {C}
  autosize;                               !- Dedicated Outdoor Air High Setpoint Temperature for Design {C}

OS:ZoneHVAC:EquipmentList,
  {ec8fff8b-3120-4c79-b07f-facc3d8bdaab}, !- Handle
  {665b6434-f399-47fe-849c-29edf5486489}, !- Name
  {498b024f-80f0-47a5-93aa-64bfca4b0229}; !- Thermal Zone

OS:ThermalZone,
  {6f33b20b-ea43-4b82-aae5-551c1988115a}, !- Handle
  Floor: 1 Zone: 4,                       !- Name
  ,                                       !- Multiplier
  ,                                       !- Ceiling Height {m}
  ,                                       !- Volume {m3}
  ,                                       !- Floor Area {m2}
  ,                                       !- Zone Inside Convection Algorithm
  ,                                       !- Zone Outside Convection Algorithm
  ,                                       !- Zone Conditioning Equipment List Name
  {c3294ce9-c246-4fd0-b772-29c37dbf0663}, !- Zone Air Inlet Port List
  {882d49d7-f538-4fda-8474-e7c299dbd56e}, !- Zone Air Exhaust Port List
  {d94ac972-a7ab-432e-a07a-998475eaf67f}, !- Zone Air Node Name
  ,                                       !- Zone Return Air Node Name
  ,                                       !- Primary Daylighting Control Name
  ,                                       !- Fraction of Zone Controlled by Primary Daylighting Control
  ,                                       !- Secondary Daylighting Control Name
  ,                                       !- Fraction of Zone Controlled by Secondary Daylighting Control
  ,                                       !- Illuminance Map Name
  ,                                       !- Group Rendering Name
  ,                                       !- Thermostat Name
  No;                                     !- Use Ideal Air Loads

OS:Node,
  {f90bf717-9d22-4ede-8261-ac48319365a3}, !- Handle
  {fb36f9b8-9b2a-4e06-80d8-e2ca6e6f01c7}, !- Name
  {d94ac972-a7ab-432e-a07a-998475eaf67f}, !- Inlet Port
  ;                                       !- Outlet Port

OS:Connection,
  {d94ac972-a7ab-432e-a07a-998475eaf67f}, !- Handle
  {9aa7bb43-389f-4cf5-9915-c5b46e9fd888}, !- Name
  {6f33b20b-ea43-4b82-aae5-551c1988115a}, !- Source Object
  11,                                     !- Outlet Port
  {f90bf717-9d22-4ede-8261-ac48319365a3}, !- Target Object
  2;                                      !- Inlet Port

OS:PortList,
  {c3294ce9-c246-4fd0-b772-29c37dbf0663}, !- Handle
  {09f28b5c-a0f0-4417-b3a5-257eaefe8824}, !- Name
  {6f33b20b-ea43-4b82-aae5-551c1988115a}; !- HVAC Component

OS:PortList,
  {882d49d7-f538-4fda-8474-e7c299dbd56e}, !- Handle
  {e80e8b85-afd3-4604-8eb9-6172e771fc4a}, !- Name
  {6f33b20b-ea43-4b82-aae5-551c1988115a}; !- HVAC Component

OS:Sizing:Zone,
  {f3e416a8-86c3-4bdb-ac46-ba5717793338}, !- Handle
  {6f33b20b-ea43-4b82-aae5-551c1988115a}, !- Zone or ZoneList Name
  SupplyAirTemperature,                   !- Zone Cooling Design Supply Air Temperature Input Method
  14,                                     !- Zone Cooling Design Supply Air Temperature {C}
  11.11,                                  !- Zone Cooling Design Supply Air Temperature Difference {deltaC}
  SupplyAirTemperature,                   !- Zone Heating Design Supply Air Temperature Input Method
  40,                                     !- Zone Heating Design Supply Air Temperature {C}
  11.11,                                  !- Zone Heating Design Supply Air Temperature Difference {deltaC}
  0.0085,                                 !- Zone Cooling Design Supply Air Humidity Ratio {kg-H2O/kg-air}
  0.008,                                  !- Zone Heating Design Supply Air Humidity Ratio {kg-H2O/kg-air}
  ,                                       !- Zone Heating Sizing Factor
  ,                                       !- Zone Cooling Sizing Factor
  DesignDay,                              !- Cooling Design Air Flow Method
  ,                                       !- Cooling Design Air Flow Rate {m3/s}
  ,                                       !- Cooling Minimum Air Flow per Zone Floor Area {m3/s-m2}
  ,                                       !- Cooling Minimum Air Flow {m3/s}
  ,                                       !- Cooling Minimum Air Flow Fraction
  DesignDay,                              !- Heating Design Air Flow Method
  ,                                       !- Heating Design Air Flow Rate {m3/s}
  ,                                       !- Heating Maximum Air Flow per Zone Floor Area {m3/s-m2}
  ,                                       !- Heating Maximum Air Flow {m3/s}
  ,                                       !- Heating Maximum Air Flow Fraction
  ,                                       !- Design Zone Air Distribution Effectiveness in Cooling Mode
  ,                                       !- Design Zone Air Distribution Effectiveness in Heating Mode
  No,                                     !- Account for Dedicated Outdoor Air System
  NeutralSupplyAir,                       !- Dedicated Outdoor Air System Control Strategy
  autosize,                               !- Dedicated Outdoor Air Low Setpoint Temperature for Design {C}
  autosize;                               !- Dedicated Outdoor Air High Setpoint Temperature for Design {C}

OS:ZoneHVAC:EquipmentList,
  {4a64477f-49b2-497b-ad91-34fe15d49507}, !- Handle
  {fae3f9e3-1873-4060-a7e4-dd75af0bccea}, !- Name
  {6f33b20b-ea43-4b82-aae5-551c1988115a}; !- Thermal Zone

OS:ThermalZone,
  {9558fb28-9b28-4a45-8dfd-a32a71cea491}, !- Handle
  Floor: 1 Zone: 5,                       !- Name
  ,                                       !- Multiplier
  ,                                       !- Ceiling Height {m}
  ,                                       !- Volume {m3}
  ,                                       !- Floor Area {m2}
  ,                                       !- Zone Inside Convection Algorithm
  ,                                       !- Zone Outside Convection Algorithm
  ,                                       !- Zone Conditioning Equipment List Name
  {7fdc70d0-985c-475a-b276-0d5c5a9dcf48}, !- Zone Air Inlet Port List
  {14d8b61c-cabd-4d86-a147-c77426e377f6}, !- Zone Air Exhaust Port List
  {04e7b7bc-fd3e-4c5e-ba48-53809812121f}, !- Zone Air Node Name
  ,                                       !- Zone Return Air Node Name
  ,                                       !- Primary Daylighting Control Name
  ,                                       !- Fraction of Zone Controlled by Primary Daylighting Control
  ,                                       !- Secondary Daylighting Control Name
  ,                                       !- Fraction of Zone Controlled by Secondary Daylighting Control
  ,                                       !- Illuminance Map Name
  ,                                       !- Group Rendering Name
  ,                                       !- Thermostat Name
  No;                                     !- Use Ideal Air Loads

OS:Node,
  {76a1ecbf-36ce-4388-892d-944a427df6ab}, !- Handle
  {8c5bb16e-5214-419c-aead-1a26fc3e4a42}, !- Name
  {04e7b7bc-fd3e-4c5e-ba48-53809812121f}, !- Inlet Port
  ;                                       !- Outlet Port

OS:Connection,
  {04e7b7bc-fd3e-4c5e-ba48-53809812121f}, !- Handle
  {f0dc6bd8-08d0-4466-a251-994115b9bfd3}, !- Name
  {9558fb28-9b28-4a45-8dfd-a32a71cea491}, !- Source Object
  11,                                     !- Outlet Port
  {76a1ecbf-36ce-4388-892d-944a427df6ab}, !- Target Object
  2;                                      !- Inlet Port

OS:PortList,
  {7fdc70d0-985c-475a-b276-0d5c5a9dcf48}, !- Handle
  {fbd235a0-3170-428d-b0d4-dc548a80dffc}, !- Name
  {9558fb28-9b28-4a45-8dfd-a32a71cea491}; !- HVAC Component

OS:PortList,
  {14d8b61c-cabd-4d86-a147-c77426e377f6}, !- Handle
  {ff15fca6-e513-45d2-9159-39eb44a7d9e3}, !- Name
  {9558fb28-9b28-4a45-8dfd-a32a71cea491}; !- HVAC Component

OS:Sizing:Zone,
  {b756c280-45a8-4618-9e58-2a263d4f1346}, !- Handle
  {9558fb28-9b28-4a45-8dfd-a32a71cea491}, !- Zone or ZoneList Name
  SupplyAirTemperature,                   !- Zone Cooling Design Supply Air Temperature Input Method
  14,                                     !- Zone Cooling Design Supply Air Temperature {C}
  11.11,                                  !- Zone Cooling Design Supply Air Temperature Difference {deltaC}
  SupplyAirTemperature,                   !- Zone Heating Design Supply Air Temperature Input Method
  40,                                     !- Zone Heating Design Supply Air Temperature {C}
  11.11,                                  !- Zone Heating Design Supply Air Temperature Difference {deltaC}
  0.0085,                                 !- Zone Cooling Design Supply Air Humidity Ratio {kg-H2O/kg-air}
  0.008,                                  !- Zone Heating Design Supply Air Humidity Ratio {kg-H2O/kg-air}
  ,                                       !- Zone Heating Sizing Factor
  ,                                       !- Zone Cooling Sizing Factor
  DesignDay,                              !- Cooling Design Air Flow Method
  ,                                       !- Cooling Design Air Flow Rate {m3/s}
  ,                                       !- Cooling Minimum Air Flow per Zone Floor Area {m3/s-m2}
  ,                                       !- Cooling Minimum Air Flow {m3/s}
  ,                                       !- Cooling Minimum Air Flow Fraction
  DesignDay,                              !- Heating Design Air Flow Method
  ,                                       !- Heating Design Air Flow Rate {m3/s}
  ,                                       !- Heating Maximum Air Flow per Zone Floor Area {m3/s-m2}
  ,                                       !- Heating Maximum Air Flow {m3/s}
  ,                                       !- Heating Maximum Air Flow Fraction
  ,                                       !- Design Zone Air Distribution Effectiveness in Cooling Mode
  ,                                       !- Design Zone Air Distribution Effectiveness in Heating Mode
  No,                                     !- Account for Dedicated Outdoor Air System
  NeutralSupplyAir,                       !- Dedicated Outdoor Air System Control Strategy
  autosize,                               !- Dedicated Outdoor Air Low Setpoint Temperature for Design {C}
  autosize;                               !- Dedicated Outdoor Air High Setpoint Temperature for Design {C}

OS:ZoneHVAC:EquipmentList,
  {4457b3c2-1190-4fd5-8b14-2873d6089673}, !- Handle
  {ccdd94c2-c90f-465f-b7c0-6eeb8632297b}, !- Name
  {9558fb28-9b28-4a45-8dfd-a32a71cea491}; !- Thermal Zone

OS:ThermalZone,
  {c9d95d0b-5f17-4598-99b4-5c04e1f79345}, !- Handle
  Floor: 1 Zone: 6,                       !- Name
  ,                                       !- Multiplier
  ,                                       !- Ceiling Height {m}
  ,                                       !- Volume {m3}
  ,                                       !- Floor Area {m2}
  ,                                       !- Zone Inside Convection Algorithm
  ,                                       !- Zone Outside Convection Algorithm
  ,                                       !- Zone Conditioning Equipment List Name
  {06a0a43c-f862-48d5-b744-176924ff3718}, !- Zone Air Inlet Port List
  {cf97a9b2-d68a-4074-b2d3-fb4682b52973}, !- Zone Air Exhaust Port List
  {a388f817-de05-4895-958c-3757ef09b351}, !- Zone Air Node Name
  ,                                       !- Zone Return Air Node Name
  ,                                       !- Primary Daylighting Control Name
  ,                                       !- Fraction of Zone Controlled by Primary Daylighting Control
  ,                                       !- Secondary Daylighting Control Name
  ,                                       !- Fraction of Zone Controlled by Secondary Daylighting Control
  ,                                       !- Illuminance Map Name
  ,                                       !- Group Rendering Name
  ,                                       !- Thermostat Name
  No;                                     !- Use Ideal Air Loads

OS:Node,
  {cb5229b9-f5ed-4d8a-bd9e-435e3d2a237e}, !- Handle
  {3a8dd607-6d6d-4394-b608-ead9868b392a}, !- Name
  {a388f817-de05-4895-958c-3757ef09b351}, !- Inlet Port
  ;                                       !- Outlet Port

OS:Connection,
  {a388f817-de05-4895-958c-3757ef09b351}, !- Handle
  {9c1ec7f4-3ef2-4bda-b63e-bcc59f314199}, !- Name
  {c9d95d0b-5f17-4598-99b4-5c04e1f79345}, !- Source Object
  11,                                     !- Outlet Port
  {cb5229b9-f5ed-4d8a-bd9e-435e3d2a237e}, !- Target Object
  2;                                      !- Inlet Port

OS:PortList,
  {06a0a43c-f862-48d5-b744-176924ff3718}, !- Handle
  {8766b776-5082-42cc-b72c-ee267a15b04f}, !- Name
  {c9d95d0b-5f17-4598-99b4-5c04e1f79345}; !- HVAC Component

OS:PortList,
  {cf97a9b2-d68a-4074-b2d3-fb4682b52973}, !- Handle
  {8c97db06-7be9-4e1d-96ee-c393dc00c778}, !- Name
  {c9d95d0b-5f17-4598-99b4-5c04e1f79345}; !- HVAC Component

OS:Sizing:Zone,
  {61b7bc46-b9b1-45a3-927a-52a37f6b7af6}, !- Handle
  {c9d95d0b-5f17-4598-99b4-5c04e1f79345}, !- Zone or ZoneList Name
  SupplyAirTemperature,                   !- Zone Cooling Design Supply Air Temperature Input Method
  14,                                     !- Zone Cooling Design Supply Air Temperature {C}
  11.11,                                  !- Zone Cooling Design Supply Air Temperature Difference {deltaC}
  SupplyAirTemperature,                   !- Zone Heating Design Supply Air Temperature Input Method
  40,                                     !- Zone Heating Design Supply Air Temperature {C}
  11.11,                                  !- Zone Heating Design Supply Air Temperature Difference {deltaC}
  0.0085,                                 !- Zone Cooling Design Supply Air Humidity Ratio {kg-H2O/kg-air}
  0.008,                                  !- Zone Heating Design Supply Air Humidity Ratio {kg-H2O/kg-air}
  ,                                       !- Zone Heating Sizing Factor
  ,                                       !- Zone Cooling Sizing Factor
  DesignDay,                              !- Cooling Design Air Flow Method
  ,                                       !- Cooling Design Air Flow Rate {m3/s}
  ,                                       !- Cooling Minimum Air Flow per Zone Floor Area {m3/s-m2}
  ,                                       !- Cooling Minimum Air Flow {m3/s}
  ,                                       !- Cooling Minimum Air Flow Fraction
  DesignDay,                              !- Heating Design Air Flow Method
  ,                                       !- Heating Design Air Flow Rate {m3/s}