
OS:Version,
  {8a9c620e-86dc-4426-8a1a-8576d51fb4eb}, !- Handle
  2.3.0;                                  !- Version Identifier

OS:ThermalZone,
  {01bcba62-22a3-4446-b9e1-216d842a68fd}, !- Handle
  Floor: 1 Zone: 1,                       !- Name
  ,                                       !- Multiplier
  ,                                       !- Ceiling Height {m}
  ,                                       !- Volume {m3}
  ,                                       !- Floor Area {m2}
  ,                                       !- Zone Inside Convection Algorithm
  ,                                       !- Zone Outside Convection Algorithm
  ,                                       !- Zone Conditioning Equipment List Name
  {232ebe2a-433d-4f8e-aa65-30d53f73bfb0}, !- Zone Air Inlet Port List
  {d5351839-956c-4436-a90d-25cb1ced7397}, !- Zone Air Exhaust Port List
  {9b85a3f4-40eb-4ea6-8020-53e063b12110}, !- Zone Air Node Name
  ,                                       !- Zone Return Air Node Name
  ,                                       !- Primary Daylighting Control Name
  ,                                       !- Fraction of Zone Controlled by Primary Daylighting Control
  ,                                       !- Secondary Daylighting Control Name
  ,                                       !- Fraction of Zone Controlled by Secondary Daylighting Control
  ,                                       !- Illuminance Map Name
  ,                                       !- Group Rendering Name
  ,                                       !- Thermostat Name
  No;                                     !- Use Ideal Air Loads

OS:Node,
  {f8013b24-f400-4328-99c4-bb125707f6a7}, !- Handle
  {f97e6c91-74d8-4c4b-9df2-b532c1ef5e4d}, !- Name
  {9b85a3f4-40eb-4ea6-8020-53e063b12110}, !- Inlet Port
  ;                                       !- Outlet Port

OS:Connection,
  {9b85a3f4-40eb-4ea6-8020-53e063b12110}, !- Handle
  {939ae550-1f38-494f-8a75-190b500d62a0}, !- Name
  {01bcba62-22a3-4446-b9e1-216d842a68fd}, !- Source Object
  11,                                     !- Outlet Port
  {f8013b24-f400-4328-99c4-bb125707f6a7}, !- Target Object
  2;                                      !- Inlet Port

OS:PortList,
  {232ebe2a-433d-4f8e-aa65-30d53f73bfb0}, !- Handle
  {01518960-8e84-4989-a1b1-1f87b04950b9}, !- Name
  {01bcba62-22a3-4446-b9e1-216d842a68fd}; !- HVAC Component

OS:PortList,
  {d5351839-956c-4436-a90d-25cb1ced7397}, !- Handle
  {a492d719-46e4-4319-b405-137b93193bd1}, !- Name
  {01bcba62-22a3-4446-b9e1-216d842a68fd}; !- HVAC Component

OS:Sizing:Zone,
  {5cba3443-fb7a-44da-b0fc-2c6621ce7408}, !- Handle
  {01bcba62-22a3-4446-b9e1-216d842a68fd}, !- Zone or ZoneList Name
  SupplyAirTemperature,                   !- Zone Cooling Design Supply Air Temperature Input Method
  14,                                     !- Zone Cooling Design Supply Air Temperature {C}
  11.11,                                  !- Zone Cooling Design Supply Air Temperature Difference {deltaC}
  SupplyAirTemperature,                   !- Zone Heating Design Supply Air Temperature Input Method
  40,                                     !- Zone Heating Design Supply Air Temperature {C}
  11.11,                                  !- Zone Heating Design Supply Air Temperature Difference {deltaC}
  0.0085,                                 !- Zone Cooling Design Supply Air Humidity Ratio {kg-H2O/kg-air}
  0.008,                                  !- Zone Heating Design Supply Air Humidity Ratio {kg-H2O/kg-air}
  ,                                       !- Zone Heating Sizing Factor
  ,                                       !- Zone Cooling Sizing Factor
  DesignDay,                              !- Cooling Design Air Flow Method
  ,                                       !- Cooling Design Air Flow Rate {m3/s}
  ,                                       !- Cooling Minimum Air Flow per Zone Floor Area {m3/s-m2}
  ,                                       !- Cooling Minimum Air Flow {m3/s}
  ,                                       !- Cooling Minimum Air Flow Fraction
  DesignDay,                              !- Heating Design Air Flow Method
  ,                                       !- Heating Design Air Flow Rate {m3/s}
  ,                                       !- Heating Maximum Air Flow per Zone Floor Area {m3/s-m2}
  ,                                       !- Heating Maximum Air Flow {m3/s}
  ,                                       !- Heating Maximum Air Flow Fraction
  ,                                       !- Design Zone Air Distribution Effectiveness in Cooling Mode
  ,                                       !- Design Zone Air Distribution Effectiveness in Heating Mode
  No,                                     !- Account for Dedicated Outdoor Air System
  NeutralSupplyAir,                       !- Dedicated Outdoor Air System Control Strategy
  autosize,                               !- Dedicated Outdoor Air Low Setpoint Temperature for Design {C}
  autosize;                               !- Dedicated Outdoor Air High Setpoint Temperature for Design {C}

OS:ZoneHVAC:EquipmentList,
  {8bb0a848-4a9a-4ee8-854b-65e744dea76d}, !- Handle
  {7e25942b-a444-4980-ad50-8e74e05a191e}, !- Name
  {01bcba62-22a3-4446-b9e1-216d842a68fd}; !- Thermal Zone

OS:ThermalZone,
  {416f8d3c-fc6d-48d4-8798-1f44b9535b65}, !- Handle
  Floor: 1 Zone: 2,                       !- Name
  ,                                       !- Multiplier
  ,                                       !- Ceiling Height {m}
  ,                                       !- Volume {m3}
  ,                                       !- Floor Area {m2}
  ,                                       !- Zone Inside Convection Algorithm
  ,                                       !- Zone Outside Convection Algorithm
  ,                                       !- Zone Conditioning Equipment List Name
  {698f1106-d792-44e5-93da-e9542c1d51b1}, !- Zone Air Inlet Port List
  {5050ec9a-04cc-49f8-8473-5a55ef4d69a2}, !- Zone Air Exhaust Port List
  {80edfcbb-cece-40fd-9e00-399f7a9c4532}, !- Zone Air Node Name
  ,                                       !- Zone Return Air Node Name
  ,                                       !- Primary Daylighting Control Name
  ,                                       !- Fraction of Zone Controlled by Primary Daylighting Control
  ,                                       !- Secondary Daylighting Control Name
  ,                                       !- Fraction of Zone Controlled by Secondary Daylighting Control
  ,                                       !- Illuminance Map Name
  ,                                       !- Group Rendering Name
  ,                                       !- Thermostat Name
  No;                                     !- Use Ideal Air Loads

OS:Node,
  {de955e9a-908e-475a-84d8-2351fddccc44}, !- Handle
  {c6b4a6e5-4533-4e35-a80e-f6733ff68fb8}, !- Name
  {80edfcbb-cece-40fd-9e00-399f7a9c4532}, !- Inlet Port
  ;                                       !- Outlet Port

OS:Connection,
  {80edfcbb-cece-40fd-9e00-399f7a9c4532}, !- Handle
  {9a328057-7fbc-4e85-b9ad-7591029c585f}, !- Name
  {416f8d3c-fc6d-48d4-8798-1f44b9535b65}, !- Source Object
  11,                                     !- Outlet Port
  {de955e9a-908e-475a-84d8-2351fddccc44}, !- Target Object
  2;                                      !- Inlet Port

OS:PortList,
  {698f1106-d792-44e5-93da-e9542c1d51b1}, !- Handle
  {865bee23-91f4-4e4d-afce-e40fee84b7c2}, !- Name
  {416f8d3c-fc6d-48d4-8798-1f44b9535b65}; !- HVAC Component

OS:PortList,
  {5050ec9a-04cc-49f8-8473-5a55ef4d69a2}, !- Handle
  {eeff6bde-1138-44b4-86a0-45bcffe8aee0}, !- Name
  {416f8d3c-fc6d-48d4-8798-1f44b9535b65}; !- HVAC Component

OS:Sizing:Zone,
  {40ac39b9-9f17-48bf-a7b9-204913cf0944}, !- Handle
  {416f8d3c-fc6d-48d4-8798-1f44b9535b65}, !- Zone or ZoneList Name
  SupplyAirTemperature,                   !- Zone Cooling Design Supply Air Temperature Input Method
  14,                                     !- Zone Cooling Design Supply Air Temperature {C}
  11.11,                                  !- Zone Cooling Design Supply Air Temperature Difference {deltaC}
  SupplyAirTemperature,                   !- Zone Heating Design Supply Air Temperature Input Method
  40,                                     !- Zone Heating Design Supply Air Temperature {C}
  11.11,                                  !- Zone Heating Design Supply Air Temperature Difference {deltaC}
  0.0085,                                 !- Zone Cooling Design Supply Air Humidity Ratio {kg-H2O/kg-air}
  0.008,                                  !- Zone Heating Design Supply Air Humidity Ratio {kg-H2O/kg-air}
  ,                                       !- Zone Heating Sizing Factor
  ,                                       !- Zone Cooling Sizing Factor
  DesignDay,                              !- Cooling Design Air Flow Method
  ,                                       !- Cooling Design Air Flow Rate {m3/s}
  ,                                       !- Cooling Minimum Air Flow per Zone Floor Area {m3/s-m2}
  ,                                       !- Cooling Minimum Air Flow {m3/s}
  ,                                       !- Cooling Minimum Air Flow Fraction
  DesignDay,                              !- Heating Design Air Flow Method
  ,                                       !- Heating Design Air Flow Rate {m3/s}
  ,                                       !- Heating Maximum Air Flow per Zone Floor Area {m3/s-m2}
  ,                                       !- Heating Maximum Air Flow {m3/s}
  ,                                       !- Heating Maximum Air Flow Fraction
  ,                                       !- Design Zone Air Distribution Effectiveness in Cooling Mode
  ,                                       !- Design Zone Air Distribution Effectiveness in Heating Mode
  No,                                     !- Account for Dedicated Outdoor Air System
  NeutralSupplyAir,                       !- Dedicated Outdoor Air System Control Strategy
  autosize,                               !- Dedicated Outdoor Air Low Setpoint Temperature for Design {C}
  autosize;                               !- Dedicated Outdoor Air High Setpoint Temperature for Design {C}

OS:ZoneHVAC:EquipmentList,
  {802274a7-b20e-492e-a0a6-f970926c9aed}, !- Handle
  {686e217a-46bb-41c2-b7eb-6ad8257ff235}, !- Name
  {416f8d3c-fc6d-48d4-8798-1f44b9535b65}; !- Thermal Zone

OS:ThermalZone,
  {f366e802-bdd8-4c35-bcce-be97cce98c52}, !- Handle
  Floor: 1 Zone: 3,                       !- Name
  ,                                       !- Multiplier
  ,                                       !- Ceiling Height {m}
  ,                                       !- Volume {m3}
  ,                                       !- Floor Area {m2}
  ,                                       !- Zone Inside Convection Algorithm
  ,                                       !- Zone Outside Convection Algorithm
  ,                                       !- Zone Conditioning Equipment List Name
  {d59c59d3-c30e-414b-bc74-b04e26db409e}, !- Zone Air Inlet Port List
  {60d0af86-fa86-45f6-bd4b-535af8955d54}, !- Zone Air Exhaust Port List
  {919e9304-8249-43de-93eb-133ddd9e364f}, !- Zone Air Node Name
  ,                                       !- Zone Return Air Node Name
  ,                                       !- Primary Daylighting Control Name
  ,                                       !- Fraction of Zone Controlled by Primary Daylighting Control
  ,                                       !- Secondary Daylighting Control Name
  ,                                       !- Fraction of Zone Controlled by Secondary Daylighting Control
  ,                                       !- Illuminance Map Name
  ,                                       !- Group Rendering Name
  ,                                       !- Thermostat Name
  No;                                     !- Use Ideal Air Loads

OS:Node,
  {08878c7b-9f93-4077-957a-ad40485cb491}, !- Handle
  {3ea89b24-003f-4f27-ae50-e6e628d263af}, !- Name
  {919e9304-8249-43de-93eb-133ddd9e364f}, !- Inlet Port
  ;                                       !- Outlet Port

OS:Connection,
  {919e9304-8249-43de-93eb-133ddd9e364f}, !- Handle
  {d20b9611-1ae1-45f0-9bf9-fd3c38917a67}, !- Name
  {f366e802-bdd8-4c35-bcce-be97cce98c52}, !- Source Object
  11,                                     !- Outlet Port
  {08878c7b-9f93-4077-957a-ad40485cb491}, !- Target Object
  2;                                      !- Inlet Port

OS:PortList,
  {d59c59d3-c30e-414b-bc74-b04e26db409e}, !- Handle
  {7506a8ff-076c-4dc2-9e62-403ebd021d00}, !- Name
  {f366e802-bdd8-4c35-bcce-be97cce98c52}; !- HVAC Component

OS:PortList,
  {60d0af86-fa86-45f6-bd4b-535af8955d54}, !- Handle
  {37909f1f-c56c-408e-ba0c-9e2628fb2dc5}, !- Name
  {f366e802-bdd8-4c35-bcce-be97cce98c52}; !- HVAC Component

OS:Sizing:Zone,
  {c849cb7d-1105-4958-aa20-e631eff768de}, !- Handle
  {f366e802-bdd8-4c35-bcce-be97cce98c52}, !- Zone or ZoneList Name
  SupplyAirTemperature,                   !- Zone Cooling Design Supply Air Temperature Input Method
  14,                                     !- Zone Cooling Design Supply Air Temperature {C}
  11.11,                                  !- Zone Cooling Design Supply Air Temperature Difference {deltaC}
  SupplyAirTemperature,                   !- Zone Heating Design Supply Air Temperature Input Method
  40,                                     !- Zone Heating Design Supply Air Temperature {C}
  11.11,                                  !- Zone Heating Design Supply Air Temperature Difference {deltaC}
  0.0085,                                 !- Zone Cooling Design Supply Air Humidity Ratio {kg-H2O/kg-air}
  0.008,                                  !- Zone Heating Design Supply Air Humidity Ratio {kg-H2O/kg-air}
  ,                                       !- Zone Heating Sizing Factor
  ,                                       !- Zone Cooling Sizing Factor
  DesignDay,                              !- Cooling Design Air Flow Method
  ,                                       !- Cooling Design Air Flow Rate {m3/s}
  ,                                       !- Cooling Minimum Air Flow per Zone Floor Area {m3/s-m2}
  ,                                       !- Cooling Minimum Air Flow {m3/s}
  ,                                       !- Cooling Minimum Air Flow Fraction
  DesignDay,                              !- Heating Design Air Flow Method
  ,                                       !- Heating Design Air Flow Rate {m3/s}
  ,                                       !- Heating Maximum Air Flow per Zone Floor Area {m3/s-m2}
  ,                                       !- Heating Maximum Air Flow {m3/s}
  ,                                       !- Heating Maximum Air Flow Fraction
  ,                                       !- Design Zone Air Distribution Effectiveness in Cooling Mode
  ,                                       !- Design Zone Air Distribution Effectiveness in Heating Mode
  No,                                     !- Account for Dedicated Outdoor Air System
  NeutralSupplyAir,                       !- Dedicated Outdoor Air System Control Strategy
  autosize,                               !- Dedicated Outdoor Air Low Setpoint Temperature for Design {C}
  autosize;                               !- Dedicated Outdoor Air High Setpoint Temperature for Design {C}

OS:ZoneHVAC:EquipmentList,
  {d471829c-cf68-41ee-ac22-cc5574ecabaa}, !- Handle
  {349a80c8-f567-4ca2-b033-cd401defac27}, !- Name
  {f366e802-bdd8-4c35-bcce-be97cce98c52}; !- Thermal Zone

OS:ThermalZone,
  {883f9dde-4a00-4258-9cc0-1fccc195a5da}, !- Handle
  Floor: 1 Zone: 4,                       !- Name
  ,                                       !- Multiplier
  ,                                       !- Ceiling Height {m}
  ,                                       !- Volume {m3}
  ,                                       !- Floor Area {m2}
  ,                                       !- Zone Inside Convection Algorithm
  ,                                       !- Zone Outside Convection Algorithm
  ,                                       !- Zone Conditioning Equipment List Name
  {8a694c4e-af61-464e-bd5b-4a21dc4c7f80}, !- Zone Air Inlet Port List
  {57d4df86-b5dd-449c-8d3f-49401148f549}, !- Zone Air Exhaust Port List
  {b9df06df-474a-4f78-96c9-5e3fdca4633f}, !- Zone Air Node Name
  ,                                       !- Zone Return Air Node Name
  ,                                       !- Primary Daylighting Control Name
  ,                                       !- Fraction of Zone Controlled by Primary Daylighting Control
  ,                                       !- Secondary Daylighting Control Name
  ,                                       !- Fraction of Zone Controlled by Secondary Daylighting Control
  ,                                       !- Illuminance Map Name
  ,                                       !- Group Rendering Name
  ,                                       !- Thermostat Name
  No;                                     !- Use Ideal Air Loads

OS:Node,
  {7cbbcbac-81b5-463e-9868-b5db6e61bb3d}, !- Handle
  {a6fbbe2c-1dca-4bb9-82d3-4b1aca704afa}, !- Name
  {b9df06df-474a-4f78-96c9-5e3fdca4633f}, !- Inlet Port
  ;                                       !- Outlet Port

OS:Connection,
  {b9df06df-474a-4f78-96c9-5e3fdca4633f}, !- Handle
  {9cf6cb72-f543-4c3a-bccc-51d58589686e}, !- Name
  {883f9dde-4a00-4258-9cc0-1fccc195a5da}, !- Source Object
  11,                                     !- Outlet Port
  {7cbbcbac-81b5-463e-9868-b5db6e61bb3d}, !- Target Object
  2;                                      !- Inlet Port

OS:PortList,
  {8a694c4e-af61-464e-bd5b-4a21dc4c7f80}, !- Handle
  {bc8f782d-d432-4923-ba12-a4f20557b76a}, !- Name
  {883f9dde-4a00-4258-9cc0-1fccc195a5da}; !- HVAC Component

OS:PortList,
  {57d4df86-b5dd-449c-8d3f-49401148f549}, !- Handle
  {a2ec91a4-ecf2-47f3-b3f6-70f30d3214a8}, !- Name
  {883f9dde-4a00-4258-9cc0-1fccc195a5da}; !- HVAC Component

OS:Sizing:Zone,
  {ff9cac4b-0b1e-45e7-8601-709d7f8949d1}, !- Handle
  {883f9dde-4a00-4258-9cc0-1fccc195a5da}, !- Zone or ZoneList Name
  SupplyAirTemperature,                   !- Zone Cooling Design Supply Air Temperature Input Method
  14,                                     !- Zone Cooling Design Supply Air Temperature {C}
  11.11,                                  !- Zone Cooling Design Supply Air Temperature Difference {deltaC}
  SupplyAirTemperature,                   !- Zone Heating Design Supply Air Temperature Input Method
  40,                                     !- Zone Heating Design Supply Air Temperature {C}
  11.11,                                  !- Zone Heating Design Supply Air Temperature Difference {deltaC}
  0.0085,                                 !- Zone Cooling Design Supply Air Humidity Ratio {kg-H2O/kg-air}
  0.008,                                  !- Zone Heating Design Supply Air Humidity Ratio {kg-H2O/kg-air}
  ,                                       !- Zone Heating Sizing Factor
  ,                                       !- Zone Cooling Sizing Factor
  DesignDay,                              !- Cooling Design Air Flow Method
  ,                                       !- Cooling Design Air Flow Rate {m3/s}
  ,                                       !- Cooling Minimum Air Flow per Zone Floor Area {m3/s-m2}
  ,                                       !- Cooling Minimum Air Flow {m3/s}
  ,                                       !- Cooling Minimum Air Flow Fraction
  DesignDay,                              !- Heating Design Air Flow Method
  ,                                       !- Heating Design Air Flow Rate {m3/s}
  ,                                       !- Heating Maximum Air Flow per Zone Floor Area {m3/s-m2}
  ,                                       !- Heating Maximum Air Flow {m3/s}
  ,                                       !- Heating Maximum Air Flow Fraction
  ,                                       !- Design Zone Air Distribution Effectiveness in Cooling Mode
  ,                                       !- Design Zone Air Distribution Effectiveness in Heating Mode
  No,                                     !- Account for Dedicated Outdoor Air System
  NeutralSupplyAir,                       !- Dedicated Outdoor Air System Control Strategy
  autosize,                               !- Dedicated Outdoor Air Low Setpoint Temperature for Design {C}
  autosize;                               !- Dedicated Outdoor Air High Setpoint Temperature for Design {C}

OS:ZoneHVAC:EquipmentList,
  {d6528bb9-15f7-476e-afbb-504de724efac}, !- Handle
  {df033163-ee13-427f-9bdc-a646d0d4f6fb}, !- Name
  {883f9dde-4a00-4258-9cc0-1fccc195a5da}; !- Thermal Zone

OS:ThermalZone,
  {76e27226-6c61-4b1b-a3ec-ef0e987cc6ff}, !- Handle
  Floor: 1 Zone: 5,                       !- Name
  ,                                       !- Multiplier
  ,                                       !- Ceiling Height {m}
  ,                                       !- Volume {m3}
  ,                                       !- Floor Area {m2}
  ,                                       !- Zone Inside Convection Algorithm
  ,                                       !- Zone Outside Convection Algorithm
  ,                                       !- Zone Conditioning Equipment List Name
  {d271776d-1ea8-4e0c-9865-55edda48baeb}, !- Zone Air Inlet Port List
  {5fb3cf9a-b50e-4f26-b16b-dda4dcc28a65}, !- Zone Air Exhaust Port List
  {dbf0cc90-c824-4bbc-a879-3b272fde42a0}, !- Zone Air Node Name
  ,                                       !- Zone Return Air Node Name
  ,                                       !- Primary Daylighting Control Name
  ,                                       !- Fraction of Zone Controlled by Primary Daylighting Control
  ,                                       !- Secondary Daylighting Control Name
  ,                                       !- Fraction of Zone Controlled by Secondary Daylighting Control
  ,                                       !- Illuminance Map Name
  ,                                       !- Group Rendering Name
  ,                                       !- Thermostat Name
  No;                                     !- Use Ideal Air Loads

OS:Node,
  {f01e674e-5ee7-4d7a-bbfd-d20bf213a229}, !- Handle
  {b1bbe5b7-eabb-4a65-b86a-dc763ff091d6}, !- Name
  {dbf0cc90-c824-4bbc-a879-3b272fde42a0}, !- Inlet Port
  ;                                       !- Outlet Port

OS:Connection,
  {dbf0cc90-c824-4bbc-a879-3b272fde42a0}, !- Handle
  {a192865a-8754-411f-9670-2f2e00656dc4}, !- Name
  {76e27226-6c61-4b1b-a3ec-ef0e987cc6ff}, !- Source Object
  11,                                     !- Outlet Port
  {f01e674e-5ee7-4d7a-bbfd-d20bf213a229}, !- Target Object
  2;                                      !- Inlet Port

OS:PortList,
  {d271776d-1ea8-4e0c-9865-55edda48baeb}, !- Handle
  {74a3b28e-cbc6-4de7-8d94-49e6712be937}, !- Name
  {76e27226-6c61-4b1b-a3ec-ef0e987cc6ff}; !- HVAC Component

OS:PortList,
  {5fb3cf9a-b50e-4f26-b16b-dda4dcc28a65}, !- Handle
  {42c35219-7cb2-4e63-9a43-65ffacd74d65}, !- Name
  {76e27226-6c61-4b1b-a3ec-ef0e987cc6ff}; !- HVAC Component

OS:Sizing:Zone,
  {b8a342b4-4f66-4d07-88fa-93e904c1bb0e}, !- Handle
  {76e27226-6c61-4b1b-a3ec-ef0e987cc6ff}, !- Zone or ZoneList Name
  SupplyAirTemperature,                   !- Zone Cooling Design Supply Air Temperature Input Method
  14,                                     !- Zone Cooling Design Supply Air Temperature {C}
  11.11,                                  !- Zone Cooling Design Supply Air Temperature Difference {deltaC}
  SupplyAirTemperature,                   !- Zone Heating Design Supply Air Temperature Input Method
  40,                                     !- Zone Heating Design Supply Air Temperature {C}
  11.11,                                  !- Zone Heating Design Supply Air Temperature Difference {deltaC}
  0.0085,                                 !- Zone Cooling Design Supply Air Humidity Ratio {kg-H2O/kg-air}
  0.008,                                  !- Zone Heating Design Supply Air Humidity Ratio {kg-H2O/kg-air}
  ,                                       !- Zone Heating Sizing Factor
  ,                                       !- Zone Cooling Sizing Factor
  DesignDay,                              !- Cooling Design Air Flow Method
  ,                                       !- Cooling Design Air Flow Rate {m3/s}
  ,                                       !- Cooling Minimum Air Flow per Zone Floor Area {m3/s-m2}
  ,                                       !- Cooling Minimum Air Flow {m3/s}
  ,                                       !- Cooling Minimum Air Flow Fraction
  DesignDay,                              !- Heating Design Air Flow Method
  ,                                       !- Heating Design Air Flow Rate {m3/s}
  ,                                       !- Heating Maximum Air Flow per Zone Floor Area {m3/s-m2}
  ,                                       !- Heating Maximum Air Flow {m3/s}
  ,                                       !- Heating Maximum Air Flow Fraction
  ,                                       !- Design Zone Air Distribution Effectiveness in Cooling Mode
  ,                                       !- Design Zone Air Distribution Effectiveness in Heating Mode
  No,                                     !- Account for Dedicated Outdoor Air System
  NeutralSupplyAir,                       !- Dedicated Outdoor Air System Control Strategy
  autosize,                               !- Dedicated Outdoor Air Low Setpoint Temperature for Design {C}
  autosize;                               !- Dedicated Outdoor Air High Setpoint Temperature for Design {C}

OS:ZoneHVAC:EquipmentList,
  {c6269626-07ab-4019-885c-825e358dcbad}, !- Handle
  {ace1a7d9-3dde-4664-be66-abb579e25adb}, !- Name
  {76e27226-6c61-4b1b-a3ec-ef0e987cc6ff}; !- Thermal Zone

OS:Facility,
  {949a7ca9-5af8-4004-9af7-51b4cc1159c6}; !- Handle

OS:Building,
  {01d09105-66ed-4172-8004-b04e3bea5442}, !- Handle
  shapeTrapezoid,                         !- Name
  ,                                       !- Building Sector Type
  ,                                       !- North Axis {deg}
  ,                                       !- Nominal Floor to Floor Height {m}
  ,                                       !- Space Type Name
  ,                                       !- Default Construction Set Name
  ;                                       !- Default Schedule Set Name

OS:BuildingStory,
  {8591ad71-7885-45e1-8998-9b551a8110be}, !- Handle
  storey-1,                               !- Name
  ,                                       !- Nominal Z Coordinate {m}
  ,                                       !- Nominal Floor to Floor Height {m}
  ,                                       !- Default Construction Set Name
  ,                                       !- Default Schedule Set Name
  ;                                       !- Group Rendering Name

OS:Space,
  {78342824-6dd5-4795-8a13-e64f9f9ebe00}, !- Handle
  Floor: 1 Space: 1,                      !- Name
  ,                                       !- Space Type Name
  ,                                       !- Default Construction Set Name
  ,                                       !- Default Schedule Set Name
  ,                                       !- Direction of Relative North {deg}
  ,                                       !- X Origin {m}
  ,                                       !- Y Origin {m}
  ,                                       !- Z Origin {m}
  {8591ad71-7885-45e1-8998-9b551a8110be}, !- Building Story Name
  {01bcba62-22a3-4446-b9e1-216d842a68fd}; !- Thermal Zone Name

OS:Space,
  {472c534c-406c-4705-af1a-dcce7e369a13}, !- Handle
  Floor: 1 Space: 2,                      !- Name
  ,                                       !- Space Type Name
  ,                                       !- Default Construction Set Name
  ,                                       !- Default Schedule Set Name
  ,                                       !- Direction of Relative North {deg}
  ,                                       !- X Origin {m}
  ,                                       !- Y Origin {m}
  ,                                       !- Z Origin {m}
  {8591ad71-7885-45e1-8998-9b551a8110be}, !- Building Story Name
  {416f8d3c-fc6d-48d4-8798-1f44b9535b65}; !- Thermal Zone Name

OS:Space,
  {0e4e795f-fa14-4bf6-9919-894901b911b6}, !- Handle
  Floor: 1 Space: 3,                      !- Name
  ,                                       !- Space Type Name
  ,                                       !- Default Construction Set Name
  ,                                       !- Default Schedule Set Name
  ,                                       !- Direction of Relative North {deg}
  ,                                       !- X Origin {m}
  ,                                       !- Y Origin {m}
  ,                                       !- Z Origin {m}
  {8591ad71-7885-45e1-8998-9b551a8110be}, !- Building Story Name
  {f366e802-bdd8-4c35-bcce-be97cce98c52}; !- Thermal Zone Name

OS:Space,
  {408e45ed-fb63-4358-8062-7c13266ed989}, !- Handle
  Floor: 1 Space: 4,                      !- Name
  ,                                       !- Space Type Name
  ,                                       !- Default Construction Set Name
  ,                                       !- Default Schedule Set Name
  ,                                       !- Direction of Relative North {deg}
  ,                                       !- X Origin {m}
  ,                                       !- Y Origin {m}
  ,                                       !- Z Origin {m}
  {8591ad71-7885-45e1-8998-9b551a8110be}, !- Building Story Name
  {883f9dde-4a00-4258-9cc0-1fccc195a5da}; !- Thermal Zone Name

OS:Space,
  {99a0fce2-66d5-4ea6-a132-4726c33241ab}, !- Handle
  Floor: 1 Space: 5,                      !- Name
  ,                                       !- Space Type Name
  ,                                       !- Default Construction Set Name