
OS:Version,
  {f4669b07-6805-483c-9b94-32d2fb7920f9}, !- Handle
  2.3.0;                                  !- Version Identifier

OS:ThermalZone,
  {3e0ea53e-434d-457f-ba22-7c4e64e1c0d9}, !- Handle
  Floor: 1 Zone: 1,                       !- Name
  ,                                       !- Multiplier
  ,                                       !- Ceiling Height {m}
  ,                                       !- Volume {m3}
  ,                                       !- Floor Area {m2}
  ,                                       !- Zone Inside Convection Algorithm
  ,                                       !- Zone Outside Convection Algorithm
  ,                                       !- Zone Conditioning Equipment List Name
  {60350235-c326-4205-b667-738b08011884}, !- Zone Air Inlet Port List
  {25da9958-427b-4965-9f56-8bd9cd94102a}, !- Zone Air Exhaust Port List
  {6afebac1-1f42-4a67-99db-a7b7203ef95c}, !- Zone Air Node Name
  ,                                       !- Zone Return Air Node Name
  ,                                       !- Primary Daylighting Control Name
  ,                                       !- Fraction of Zone Controlled by Primary Daylighting Control
  ,                                       !- Secondary Daylighting Control Name
  ,                                       !- Fraction of Zone Controlled by Secondary Daylighting Control
  ,                                       !- Illuminance Map Name
  ,                                       !- Group Rendering Name
  ,                                       !- Thermostat Name
  No;                                     !- Use Ideal Air Loads

OS:Node,
  {2dee8592-98d2-478f-9a54-43f48881c80d}, !- Handle
  {f15351a3-c5d8-4335-849b-7232890d3e82}, !- Name
  {6afebac1-1f42-4a67-99db-a7b7203ef95c}, !- Inlet Port
  ;                                       !- Outlet Port

OS:Connection,
  {6afebac1-1f42-4a67-99db-a7b7203ef95c}, !- Handle
  {31c31e6b-5449-4637-8b8a-7f927bacf542}, !- Name
  {3e0ea53e-434d-457f-ba22-7c4e64e1c0d9}, !- Source Object
  11,                                     !- Outlet Port
  {2dee8592-98d2-478f-9a54-43f48881c80d}, !- Target Object
  2;                                      !- Inlet Port

OS:PortList,
  {60350235-c326-4205-b667-738b08011884}, !- Handle
  {52d92fd2-9bdb-4744-a6f0-8a07d9c93009}, !- Name
  {3e0ea53e-434d-457f-ba22-7c4e64e1c0d9}; !- HVAC Component

OS:PortList,
  {25da9958-427b-4965-9f56-8bd9cd94102a}, !- Handle
  {2e71f204-8fdb-49e8-83d2-d585b6087aa6}, !- Name
  {3e0ea53e-434d-457f-ba22-7c4e64e1c0d9}; !- HVAC Component

OS:Sizing:Zone,
  {18a27556-66c6-48e0-84b3-5d31334e4fbf}, !- Handle
  {3e0ea53e-434d-457f-ba22-7c4e64e1c0d9}, !- Zone or ZoneList Name
  SupplyAirTemperature,                   !- Zone Cooling Design Supply Air Temperature Input Method
  14,                                     !- Zone Cooling Design Supply Air Temperature {C}
  11.11,                                  !- Zone Cooling Design Supply Air Temperature Difference {deltaC}
  SupplyAirTemperature,                   !- Zone Heating Design Supply Air Temperature Input Method
  40,                                     !- Zone Heating Design Supply Air Temperature {C}
  11.11,                                  !- Zone Heating Design Supply Air Temperature Difference {deltaC}
  0.0085,                                 !- Zone Cooling Design Supply Air Humidity Ratio {kg-H2O/kg-air}
  0.008,                                  !- Zone Heating Design Supply Air Humidity Ratio {kg-H2O/kg-air}
  ,                                       !- Zone Heating Sizing Factor
  ,                                       !- Zone Cooling Sizing Factor
  DesignDay,                              !- Cooling Design Air Flow Method
  ,                                       !- Cooling Design Air Flow Rate {m3/s}
  ,                                       !- Cooling Minimum Air Flow per Zone Floor Area {m3/s-m2}
  ,                                       !- Cooling Minimum Air Flow {m3/s}
  ,                                       !- Cooling Minimum Air Flow Fraction
  DesignDay,                              !- Heating Design Air Flow Method
  ,                                       !- Heating Design Air Flow Rate {m3/s}
  ,                                       !- Heating Maximum Air Flow per Zone Floor Area {m3/s-m2}
  ,                                       !- Heating Maximum Air Flow {m3/s}
  ,                                       !- Heating Maximum Air Flow Fraction
  ,                                       !- Design Zone Air Distribution Effectiveness in Cooling Mode
  ,                                       !- Design Zone Air Distribution Effectiveness in Heating Mode
  No,                                     !- Account for Dedicated Outdoor Air System
  NeutralSupplyAir,                       !- Dedicated Outdoor Air System Control Strategy
  autosize,                               !- Dedicated Outdoor Air Low Setpoint Temperature for Design {C}
  autosize;                               !- Dedicated Outdoor Air High Setpoint Temperature for Design {C}

OS:ZoneHVAC:EquipmentList,
  {b2be09b2-1703-4c38-a3e1-10968efeec7e}, !- Handle
  {4a70d986-2297-4519-ac4e-19d0911a483f}, !- Name
  {3e0ea53e-434d-457f-ba22-7c4e64e1c0d9}; !- Thermal Zone

OS:ThermalZone,
  {f83d9687-76f8-46a2-bb71-e7bb70fc294a}, !- Handle
  Floor: 1 Zone: 2,                       !- Name
  ,                                       !- Multiplier
  ,                                       !- Ceiling Height {m}
  ,                                       !- Volume {m3}
  ,                                       !- Floor Area {m2}
  ,                                       !- Zone Inside Convection Algorithm
  ,                                       !- Zone Outside Convection Algorithm
  ,                                       !- Zone Conditioning Equipment List Name
  {235b0557-e8bd-4f85-accd-e9f1eccba07c}, !- Zone Air Inlet Port List
  {6b5df1db-5786-4703-9ce6-8556c4d4fc67}, !- Zone Air Exhaust Port List
  {7d2fb9b8-ff83-4447-8160-361c38308724}, !- Zone Air Node Name
  ,                                       !- Zone Return Air Node Name
  ,                                       !- Primary Daylighting Control Name
  ,                                       !- Fraction of Zone Controlled by Primary Daylighting Control
  ,                                       !- Secondary Daylighting Control Name
  ,                                       !- Fraction of Zone Controlled by Secondary Daylighting Control
  ,                                       !- Illuminance Map Name
  ,                                       !- Group Rendering Name
  ,                                       !- Thermostat Name
  No;                                     !- Use Ideal Air Loads

OS:Node,
  {de99477d-f660-4969-9d03-747ea158bf33}, !- Handle
  {aca6637d-1e84-41ca-8c21-dfdfe4136f9a}, !- Name
  {7d2fb9b8-ff83-4447-8160-361c38308724}, !- Inlet Port
  ;                                       !- Outlet Port

OS:Connection,
  {7d2fb9b8-ff83-4447-8160-361c38308724}, !- Handle
  {b3441e13-46ff-4fcb-b8e4-a04949b0e0e8}, !- Name
  {f83d9687-76f8-46a2-bb71-e7bb70fc294a}, !- Source Object
  11,                                     !- Outlet Port
  {de99477d-f660-4969-9d03-747ea158bf33}, !- Target Object
  2;                                      !- Inlet Port

OS:PortList,
  {235b0557-e8bd-4f85-accd-e9f1eccba07c}, !- Handle
  {e1d8b974-55d8-499b-aa85-c24c09e8eae7}, !- Name
  {f83d9687-76f8-46a2-bb71-e7bb70fc294a}; !- HVAC Component

OS:PortList,
  {6b5df1db-5786-4703-9ce6-8556c4d4fc67}, !- Handle
  {b8d61c52-7cff-4841-b784-ebf4d0f16ee5}, !- Name
  {f83d9687-76f8-46a2-bb71-e7bb70fc294a}; !- HVAC Component

OS:Sizing:Zone,
  {7d52cc56-4475-4ce4-af83-da08e2a8f46a}, !- Handle
  {f83d9687-76f8-46a2-bb71-e7bb70fc294a}, !- Zone or ZoneList Name
  SupplyAirTemperature,                   !- Zone Cooling Design Supply Air Temperature Input Method
  14,                                     !- Zone Cooling Design Supply Air Temperature {C}
  11.11,                                  !- Zone Cooling Design Supply Air Temperature Difference {deltaC}
  SupplyAirTemperature,                   !- Zone Heating Design Supply Air Temperature Input Method
  40,                                     !- Zone Heating Design Supply Air Temperature {C}
  11.11,                                  !- Zone Heating Design Supply Air Temperature Difference {deltaC}
  0.0085,                                 !- Zone Cooling Design Supply Air Humidity Ratio {kg-H2O/kg-air}
  0.008,                                  !- Zone Heating Design Supply Air Humidity Ratio {kg-H2O/kg-air}
  ,                                       !- Zone Heating Sizing Factor
  ,                                       !- Zone Cooling Sizing Factor
  DesignDay,                              !- Cooling Design Air Flow Method
  ,                                       !- Cooling Design Air Flow Rate {m3/s}
  ,                                       !- Cooling Minimum Air Flow per Zone Floor Area {m3/s-m2}
  ,                                       !- Cooling Minimum Air Flow {m3/s}
  ,                                       !- Cooling Minimum Air Flow Fraction
  DesignDay,                              !- Heating Design Air Flow Method
  ,                                       !- Heating Design Air Flow Rate {m3/s}
  ,                                       !- Heating Maximum Air Flow per Zone Floor Area {m3/s-m2}
  ,                                       !- Heating Maximum Air Flow {m3/s}
  ,                                       !- Heating Maximum Air Flow Fraction
  ,                                       !- Design Zone Air Distribution Effectiveness in Cooling Mode
  ,                                       !- Design Zone Air Distribution Effectiveness in Heating Mode
  No,                                     !- Account for Dedicated Outdoor Air System
  NeutralSupplyAir,                       !- Dedicated Outdoor Air System Control Strategy
  autosize,                               !- Dedicated Outdoor Air Low Setpoint Temperature for Design {C}
  autosize;                               !- Dedicated Outdoor Air High Setpoint Temperature for Design {C}

OS:ZoneHVAC:EquipmentList,
  {522d9a55-54f9-4e64-a084-4532f53dda76}, !- Handle
  {697511ce-a6bc-461f-86e3-e5cc9d470e18}, !- Name
  {f83d9687-76f8-46a2-bb71-e7bb70fc294a}; !- Thermal Zone

OS:ThermalZone,
  {a10183b8-07ad-42d2-a6f8-865c9dfc93ae}, !- Handle
  Floor: 1 Zone: 3,                       !- Name
  ,                                       !- Multiplier
  ,                                       !- Ceiling Height {m}
  ,                                       !- Volume {m3}
  ,                                       !- Floor Area {m2}
  ,                                       !- Zone Inside Convection Algorithm
  ,                                       !- Zone Outside Convection Algorithm
  ,                                       !- Zone Conditioning Equipment List Name
  {d36defca-1ca6-47c3-860b-d78e1e98cfe7}, !- Zone Air Inlet Port List
  {880ceb44-2707-42b0-9500-bdcecd0cba28}, !- Zone Air Exhaust Port List
  {15c8a306-47b1-4f12-b263-75b92ef2ae86}, !- Zone Air Node Name
  ,                                       !- Zone Return Air Node Name
  ,                                       !- Primary Daylighting Control Name
  ,                                       !- Fraction of Zone Controlled by Primary Daylighting Control
  ,                                       !- Secondary Daylighting Control Name
  ,                                       !- Fraction of Zone Controlled by Secondary Daylighting Control
  ,                                       !- Illuminance Map Name
  ,                                       !- Group Rendering Name
  ,                                       !- Thermostat Name
  No;                                     !- Use Ideal Air Loads

OS:Node,
  {453c5f6f-f9b2-43a5-a781-049c447174ea}, !- Handle
  {e0d00172-0317-4969-840c-ee4b908e1b7b}, !- Name
  {15c8a306-47b1-4f12-b263-75b92ef2ae86}, !- Inlet Port
  ;                                       !- Outlet Port

OS:Connection,
  {15c8a306-47b1-4f12-b263-75b92ef2ae86}, !- Handle
  {e112820a-e6c9-4987-9477-abf32b2290cf}, !- Name
  {a10183b8-07ad-42d2-a6f8-865c9dfc93ae}, !- Source Object
  11,                                     !- Outlet Port
  {453c5f6f-f9b2-43a5-a781-049c447174ea}, !- Target Object
  2;                                      !- Inlet Port

OS:PortList,
  {d36defca-1ca6-47c3-860b-d78e1e98cfe7}, !- Handle
  {b4f0b5f0-d71b-4fe0-98fc-e6d26627c293}, !- Name
  {a10183b8-07ad-42d2-a6f8-865c9dfc93ae}; !- HVAC Component

OS:PortList,
  {880ceb44-2707-42b0-9500-bdcecd0cba28}, !- Handle
  {01e52ca3-4b65-42da-bf48-edc8c9a5a2a8}, !- Name
  {a10183b8-07ad-42d2-a6f8-865c9dfc93ae}; !- HVAC Component

OS:Sizing:Zone,
  {bb7bf103-4058-4b72-80de-6313881c5c29}, !- Handle
  {a10183b8-07ad-42d2-a6f8-865c9dfc93ae}, !- Zone or ZoneList Name
  SupplyAirTemperature,                   !- Zone Cooling Design Supply Air Temperature Input Method
  14,                                     !- Zone Cooling Design Supply Air Temperature {C}
  11.11,                                  !- Zone Cooling Design Supply Air Temperature Difference {deltaC}
  SupplyAirTemperature,                   !- Zone Heating Design Supply Air Temperature Input Method
  40,                                     !- Zone Heating Design Supply Air Temperature {C}
  11.11,                                  !- Zone Heating Design Supply Air Temperature Difference {deltaC}
  0.0085,                                 !- Zone Cooling Design Supply Air Humidity Ratio {kg-H2O/kg-air}
  0.008,                                  !- Zone Heating Design Supply Air Humidity Ratio {kg-H2O/kg-air}
  ,                                       !- Zone Heating Sizing Factor
  ,                                       !- Zone Cooling Sizing Factor
  DesignDay,                              !- Cooling Design Air Flow Method
  ,                                       !- Cooling Design Air Flow Rate {m3/s}
  ,                                       !- Cooling Minimum Air Flow per Zone Floor Area {m3/s-m2}
  ,                                       !- Cooling Minimum Air Flow {m3/s}
  ,                                       !- Cooling Minimum Air Flow Fraction
  DesignDay,                              !- Heating Design Air Flow Method
  ,                                       !- Heating Design Air Flow Rate {m3/s}
  ,                                       !- Heating Maximum Air Flow per Zone Floor Area {m3/s-m2}
  ,                                       !- Heating Maximum Air Flow {m3/s}
  ,                                       !- Heating Maximum Air Flow Fraction
  ,                                       !- Design Zone Air Distribution Effectiveness in Cooling Mode
  ,                                       !- Design Zone Air Distribution Effectiveness in Heating Mode
  No,                                     !- Account for Dedicated Outdoor Air System
  NeutralSupplyAir,                       !- Dedicated Outdoor Air System Control Strategy
  autosize,                               !- Dedicated Outdoor Air Low Setpoint Temperature for Design {C}
  autosize;                               !- Dedicated Outdoor Air High Setpoint Temperature for Design {C}

OS:ZoneHVAC:EquipmentList,
  {3373d01b-676d-4056-86c2-857cd25c5434}, !- Handle
  {fbbaaeaa-531e-44ea-bc7b-5b4cdef67a0c}, !- Name
  {a10183b8-07ad-42d2-a6f8-865c9dfc93ae}; !- Thermal Zone

OS:ThermalZone,
  {c93287ca-0844-432b-a76d-49586ebef04f}, !- Handle
  Floor: 1 Zone: 4,                       !- Name
  ,                                       !- Multiplier
  ,                                       !- Ceiling Height {m}
  ,                                       !- Volume {m3}
  ,                                       !- Floor Area {m2}
  ,                                       !- Zone Inside Convection Algorithm
  ,                                       !- Zone Outside Convection Algorithm
  ,                                       !- Zone Conditioning Equipment List Name
  {2a1c0f15-7ec1-4d42-b190-d71e1f333e8d}, !- Zone Air Inlet Port List
  {9d202fba-0a8e-4aed-a84e-c8828773bfdd}, !- Zone Air Exhaust Port List
  {853c2977-955b-47a1-a24b-a1ae7bef0faf}, !- Zone Air Node Name
  ,                                       !- Zone Return Air Node Name
  ,                                       !- Primary Daylighting Control Name
  ,                                       !- Fraction of Zone Controlled by Primary Daylighting Control
  ,                                       !- Secondary Daylighting Control Name
  ,                                       !- Fraction of Zone Controlled by Secondary Daylighting Control
  ,                                       !- Illuminance Map Name
  ,                                       !- Group Rendering Name
  ,                                       !- Thermostat Name
  No;                                     !- Use Ideal Air Loads

OS:Node,
  {e6174814-049c-4ac9-8c59-e7f0134e3167}, !- Handle
  {64d2e514-2fa9-4dc7-a6d3-5d350c16477a}, !- Name
  {853c2977-955b-47a1-a24b-a1ae7bef0faf}, !- Inlet Port
  ;                                       !- Outlet Port

OS:Connection,
  {853c2977-955b-47a1-a24b-a1ae7bef0faf}, !- Handle
  {be344736-a33a-44c1-9135-936af67be5b8}, !- Name
  {c93287ca-0844-432b-a76d-49586ebef04f}, !- Source Object
  11,                                     !- Outlet Port
  {e6174814-049c-4ac9-8c59-e7f0134e3167}, !- Target Object
  2;                                      !- Inlet Port

OS:PortList,
  {2a1c0f15-7ec1-4d42-b190-d71e1f333e8d}, !- Handle
  {070c9fc5-42d8-4535-b2ed-ca77484697b3}, !- Name
  {c93287ca-0844-432b-a76d-49586ebef04f}; !- HVAC Component

OS:PortList,
  {9d202fba-0a8e-4aed-a84e-c8828773bfdd}, !- Handle
  {d19db0cd-bc30-4e8b-b7b7-8ca4a1597d26}, !- Name
  {c93287ca-0844-432b-a76d-49586ebef04f}; !- HVAC Component

OS:Sizing:Zone,
  {481e5eee-3231-47b6-b107-62684dd6a063}, !- Handle
  {c93287ca-0844-432b-a76d-49586ebef04f}, !- Zone or ZoneList Name
  SupplyAirTemperature,                   !- Zone Cooling Design Supply Air Temperature Input Method
  14,                                     !- Zone Cooling Design Supply Air Temperature {C}
  11.11,                                  !- Zone Cooling Design Supply Air Temperature Difference {deltaC}
  SupplyAirTemperature,                   !- Zone Heating Design Supply Air Temperature Input Method
  40,                                     !- Zone Heating Design Supply Air Temperature {C}
  11.11,                                  !- Zone Heating Design Supply Air Temperature Difference {deltaC}
  0.0085,                                 !- Zone Cooling Design Supply Air Humidity Ratio {kg-H2O/kg-air}
  0.008,                                  !- Zone Heating Design Supply Air Humidity Ratio {kg-H2O/kg-air}
  ,                                       !- Zone Heating Sizing Factor
  ,                                       !- Zone Cooling Sizing Factor
  DesignDay,                              !- Cooling Design Air Flow Method
  ,                                       !- Cooling Design Air Flow Rate {m3/s}
  ,                                       !- Cooling Minimum Air Flow per Zone Floor Area {m3/s-m2}
  ,                                       !- Cooling Minimum Air Flow {m3/s}
  ,                                       !- Cooling Minimum Air Flow Fraction
  DesignDay,                              !- Heating Design Air Flow Method
  ,                                       !- Heating Design Air Flow Rate {m3/s}
  ,                                       !- Heating Maximum Air Flow per Zone Floor Area {m3/s-m2}
  ,                                       !- Heating Maximum Air Flow {m3/s}
  ,                                       !- Heating Maximum Air Flow Fraction
  ,                                       !- Design Zone Air Distribution Effectiveness in Cooling Mode
  ,                                       !- Design Zone Air Distribution Effectiveness in Heating Mode
  No,                                     !- Account for Dedicated Outdoor Air System
  NeutralSupplyAir,                       !- Dedicated Outdoor Air System Control Strategy
  autosize,                               !- Dedicated Outdoor Air Low Setpoint Temperature for Design {C}
  autosize;                               !- Dedicated Outdoor Air High Setpoint Temperature for Design {C}

OS:ZoneHVAC:EquipmentList,
  {337260b6-d745-4282-be07-e63d1e313039}, !- Handle
  {d885659c-c7c5-48c5-9faf-0b7d29dfbb96}, !- Name
  {c93287ca-0844-432b-a76d-49586ebef04f}; !- Thermal Zone

OS:ThermalZone,
  {dc7bf5f6-ed8c-4b8c-a8fa-ba4c03248156}, !- Handle
  Floor: 1 Zone: 5,                       !- Name
  ,                                       !- Multiplier
  ,                                       !- Ceiling Height {m}
  ,                                       !- Volume {m3}
  ,                                       !- Floor Area {m2}
  ,                                       !- Zone Inside Convection Algorithm
  ,                                       !- Zone Outside Convection Algorithm
  ,                                       !- Zone Conditioning Equipment List Name
  {e2ffe833-568c-426d-a113-3060619b5ed0}, !- Zone Air Inlet Port List
  {62ad4d0c-c578-45ba-95db-10dfa2f46b98}, !- Zone Air Exhaust Port List
  {3193eb19-eb07-487a-b050-33c974a246d3}, !- Zone Air Node Name
  ,                                       !- Zone Return Air Node Name
  ,                                       !- Primary Daylighting Control Name
  ,                                       !- Fraction of Zone Controlled by Primary Daylighting Control
  ,                                       !- Secondary Daylighting Control Name
  ,                                       !- Fraction of Zone Controlled by Secondary Daylighting Control
  ,                                       !- Illuminance Map Name
  ,                                       !- Group Rendering Name
  ,                                       !- Thermostat Name
  No;                                     !- Use Ideal Air Loads

OS:Node,
  {61b4f27d-3e67-48e0-b993-4d7ee8274d02}, !- Handle
  {d8af8429-15b2-423a-997c-f4bc417089a5}, !- Name
  {3193eb19-eb07-487a-b050-33c974a246d3}, !- Inlet Port
  ;                                       !- Outlet Port

OS:Connection,
  {3193eb19-eb07-487a-b050-33c974a246d3}, !- Handle
  {7d7bb4b0-7f4c-45a4-852a-f63d923088d1}, !- Name
  {dc7bf5f6-ed8c-4b8c-a8fa-ba4c03248156}, !- Source Object
  11,                                     !- Outlet Port
  {61b4f27d-3e67-48e0-b993-4d7ee8274d02}, !- Target Object
  2;                                      !- Inlet Port

OS:PortList,
  {e2ffe833-568c-426d-a113-3060619b5ed0}, !- Handle
  {c7bbaa6f-f68b-4030-9a65-b4ee5043fb12}, !- Name
  {dc7bf5f6-ed8c-4b8c-a8fa-ba4c03248156}; !- HVAC Component

OS:PortList,
  {62ad4d0c-c578-45ba-95db-10dfa2f46b98}, !- Handle
  {9ae7ab41-e332-4829-aafc-f4649543a17c}, !- Name
  {dc7bf5f6-ed8c-4b8c-a8fa-ba4c03248156}; !- HVAC Component

OS:Sizing:Zone,
  {90eaf6ab-94d9-4521-8500-4e2fcb853539}, !- Handle
  {dc7bf5f6-ed8c-4b8c-a8fa-ba4c03248156}, !- Zone or ZoneList Name
  SupplyAirTemperature,                   !- Zone Cooling Design Supply Air Temperature Input Method
  14,                                     !- Zone Cooling Design Supply Air Temperature {C}
  11.11,                                  !- Zone Cooling Design Supply Air Temperature Difference {deltaC}
  SupplyAirTemperature,                   !- Zone Heating Design Supply Air Temperature Input Method
  40,                                     !- Zone Heating Design Supply Air Temperature {C}
  11.11,                                  !- Zone Heating Design Supply Air Temperature Difference {deltaC}
  0.0085,                                 !- Zone Cooling Design Supply Air Humidity Ratio {kg-H2O/kg-air}
  0.008,                                  !- Zone Heating Design Supply Air Humidity Ratio {kg-H2O/kg-air}
  ,                                       !- Zone Heating Sizing Factor
  ,                                       !- Zone Cooling Sizing Factor
  DesignDay,                              !- Cooling Design Air Flow Method
  ,                                       !- Cooling Design Air Flow Rate {m3/s}
  ,                                       !- Cooling Minimum Air Flow per Zone Floor Area {m3/s-m2}
  ,                                       !- Cooling Minimum Air Flow {m3/s}
  ,                                       !- Cooling Minimum Air Flow Fraction
  DesignDay,                              !- Heating Design Air Flow Method
  ,                                       !- Heating Design Air Flow Rate {m3/s}
  ,                                       !- Heating Maximum Air Flow per Zone Floor Area {m3/s-m2}
  ,                                       !- Heating Maximum Air Flow {m3/s}
  ,                                       !- Heating Maximum Air Flow Fraction
  ,                                       !- Design Zone Air Distribution Effectiveness in Cooling Mode
  ,                                       !- Design Zone Air Distribution Effectiveness in Heating Mode
  No,                                     !- Account for Dedicated Outdoor Air System
  NeutralSupplyAir,                       !- Dedicated Outdoor Air System Control Strategy
  autosize,                               !- Dedicated Outdoor Air Low Setpoint Temperature for Design {C}
  autosize;                               !- Dedicated Outdoor Air High Setpoint Temperature for Design {C}

OS:ZoneHVAC:EquipmentList,
  {2eed5cf0-6583-4a34-a021-1f0df3d4f524}, !- Handle
  {8ec08678-b289-47d1-a811-79d2750e3a31}, !- Name
  {dc7bf5f6-ed8c-4b8c-a8fa-ba4c03248156}; !- Thermal Zone

OS:ThermalZone,
  {19ea33fd-b06a-4bfb-a3f9-0fb16a8057d8}, !- Handle
  Floor: 1 Zone: 6,                       !- Name
  ,                                       !- Multiplier
  ,                                       !- Ceiling Height {m}
  ,                                       !- Volume {m3}
  ,                                       !- Floor Area {m2}
  ,                                       !- Zone Inside Convection Algorithm
  ,                                       !- Zone Outside Convection Algorithm
  ,                                       !- Zone Conditioning Equipment List Name
  {e2b6080f-581f-472b-be65-991f04e1c965}, !- Zone Air Inlet Port List
  {0ec7fa72-db12-48b9-86b2-7c54a965d71b}, !- Zone Air Exhaust Port List
  {1be1c8e4-81f9-45b1-af2b-8b97e5c6c415}, !- Zone Air Node Name
  ,                                       !- Zone Return Air Node Name
  ,                                       !- Primary Daylighting Control Name
  ,                                       !- Fraction of Zone Controlled by Primary Daylighting Control
  ,                                       !- Secondary Daylighting Control Name
  ,                                       !- Fraction of Zone Controlled by Secondary Daylighting Control
  ,                                       !- Illuminance Map Name
  ,                                       !- Group Rendering Name
  ,                                       !- Thermostat Name
  No;                                     !- Use Ideal Air Loads

OS:Node,
  {1c80f235-0071-4e76-a657-466b31aa03f7}, !- Handle
  {16898393-c8d9-4af8-8caa-555f1e8416a5}, !- Name
  {1be1c8e4-81f9-45b1-af2b-8b97e5c6c415}, !- Inlet Port
  ;                                       !- Outlet Port

OS:Connection,
  {1be1c8e4-81f9-45b1-af2b-8b97e5c6c415}, !- Handle
  {2bfcf98a-af64-4edc-8f58-ff983e7a44bc}, !- Name
  {19ea33fd-b06a-4bfb-a3f9-0fb16a8057d8}, !- Source Object
  11,                                     !- Outlet Port
  {1c80f235-0071-4e76-a657-466b31aa03f7}, !- Target Object
  2;                                      !- Inlet Port

OS:PortList,
  {e2b6080f-581f-472b-be65-991f04e1c965}, !- Handle
  {3e30c00b-79a4-4741-9c4d-9021ccf72838}, !- Name
  {19ea33fd-b06a-4bfb-a3f9-0fb16a8057d8}; !- HVAC Component

OS:PortList,
  {0ec7fa72-db12-48b9-86b2-7c54a965d71b}, !- Handle
  {501e1703-1689-47c1-ac8c-0acdc4190a33}, !- Name
  {19ea33fd-b06a-4bfb-a3f9-0fb16a8057d8}; !- HVAC Component

OS:Sizing:Zone,
  {7c0d39c7-c672-4a14-82f1-a6afdefdec70}, !- Handle
  {19ea33fd-b06a-4bfb-a3f9-0fb16a8057d8}, !- Zone or ZoneList Name
  SupplyAirTemperature,                   !- Zone Cooling Design Supply Air Temperature Input Method
  14,                                     !- Zone Cooling Design Supply Air Temperature {C}
  11.11,                                  !- Zone Cooling Design Supply Air Temperature Difference {deltaC}
  SupplyAirTemperature,                   !- Zone Heating Design Supply Air Temperature Input Method
  40,                                     !- Zone Heating Design Supply Air Temperature {C}
  11.11,                                  !- Zone Heating Design Supply Air Temperature Difference {deltaC}
  0.0085,                                 !- Zone Cooling Design Supply Air Humidity Ratio {kg-H2O/kg-air}
  0.008,                                  !- Zone Heating Design Supply Air Humidity Ratio {kg-H2O/kg-air}
  ,                                       !- Zone Heating Sizing Factor
  ,                                       !- Zone Cooling Sizing Factor
  DesignDay,                              !- Cooling Design Air Flow Method
  ,                                       !- Cooling Design Air Flow Rate {m3/s}
  ,                                       !- Cooling Minimum Air Flow per Zone Floor Area {m3/s-m2}
  ,                                       !- Cooling Minimum Air Flow {m3/s}
  ,                                       !- Cooling Minimum Air Flow Fraction
  DesignDay,                              !- Heating Design Air Flow Method
  ,                                       !- Heating Design Air Flow Rate {m3/s}