
Version,
  8.8;                                    !- Version Identifier

LifeCycleCost:Parameters,
  {f3381552-ee3a-41dc-9023-328afbe99204}, !- Name
  EndOfYear,                              !- Discounting Convention
  ConstantDollar,                         !- Inflation Approach
  0.03,                                   !- Real Discount Rate
  ,                                       !- Nominal Discount Rate
  ,                                       !- Inflation
  ,                                       !- Base Date Month
  2011,                                   !- Base Date Year
  ,                                       !- Service Date Month
  2011,                                   !- Service Date Year
  25,                                     !- Length of Study Period in Years
  ,                                       !- Tax rate
  None;                                   !- Depreciation Method

LifeCycleCost:UsePriceEscalation,
  U.S. Avg  Commercial-Electricity,       !- LCC Price Escalation Name
  Electricity,                            !- Resource
  2011,                                   !- Escalation Start Year
  January,                                !- Escalation Start Month
  0.9838,                                 !- Year Escalation 1
  0.9730,                                 !- Year Escalation 2
  0.9632,                                 !- Year Escalation 3
  0.9611,                                 !- Year Escalation 4
  0.9571,                                 !- Year Escalation 5
  0.9553,                                 !- Year Escalation 6
  0.9539,                                 !- Year Escalation 7
  0.9521,                                 !- Year Escalation 8
  0.9546,                                 !- Year Escalation 9
  0.9550,                                 !- Year Escalation 10
  0.9553,                                 !- Year Escalation 11
  0.9564,                                 !- Year Escalation 12
  0.9575,                                 !- Year Escalation 13
  0.9596,                                 !- Year Escalation 14
  0.9618,                                 !- Year Escalation 15
  0.9614,                                 !- Year Escalation 16
  0.9618,                                 !- Year Escalation 17
  0.9618,                                 !- Year Escalation 18
  0.9593,                                 !- Year Escalation 19
  0.9589,                                 !- Year Escalation 20
  0.9607,                                 !- Year Escalation 21
  0.9625,                                 !- Year Escalation 22
  0.9650,                                 !- Year Escalation 23
  0.9708,                                 !- Year Escalation 24
  0.9751,                                 !- Year Escalation 25
  0.9762,                                 !- Year Escalation 26
  0.9766,                                 !- Year Escalation 27
  0.9766,                                 !- Year Escalation 28
  0.9769,                                 !- Year Escalation 29
  0.9773;                                 !- Year Escalation 30

LifeCycleCost:UsePriceEscalation,
  U.S. Avg  Commercial-Distillate Oil,    !- LCC Price Escalation Name
  FuelOil#1,                              !- Resource
  2011,                                   !- Escalation Start Year
  January,                                !- Escalation Start Month
  0.9714,                                 !- Year Escalation 1
  0.9730,                                 !- Year Escalation 2
  0.9942,                                 !- Year Escalation 3
  1.0164,                                 !- Year Escalation 4
  1.0541,                                 !- Year Escalation 5
  1.0928,                                 !- Year Escalation 6
  1.1267,                                 !- Year Escalation 7
  1.1580,                                 !- Year Escalation 8
  1.1792,                                 !- Year Escalation 9
  1.1967,                                 !- Year Escalation 10
  1.2200,                                 !- Year Escalation 11
  1.2333,                                 !- Year Escalation 12
  1.2566,                                 !- Year Escalation 13
  1.2709,                                 !- Year Escalation 14
  1.2826,                                 !- Year Escalation 15
  1.2985,                                 !- Year Escalation 16
  1.3102,                                 !- Year Escalation 17
  1.3250,                                 !- Year Escalation 18
  1.3261,                                 !- Year Escalation 19
  1.3282,                                 !- Year Escalation 20
  1.3324,                                 !- Year Escalation 21
  1.3356,                                 !- Year Escalation 22
  1.3431,                                 !- Year Escalation 23
  1.3510,                                 !- Year Escalation 24
  1.3568,                                 !- Year Escalation 25
  1.3606,                                 !- Year Escalation 26
  1.3637,                                 !- Year Escalation 27
  1.3674,                                 !- Year Escalation 28
  1.3706,                                 !- Year Escalation 29
  1.3743;                                 !- Year Escalation 30

LifeCycleCost:UsePriceEscalation,
  U.S. Avg  Commercial-Residual Oil,      !- LCC Price Escalation Name
  FuelOil#2,                              !- Resource
  2011,                                   !- Escalation Start Year
  January,                                !- Escalation Start Month
  0.8469,                                 !- Year Escalation 1
  0.8257,                                 !- Year Escalation 2
  0.8681,                                 !- Year Escalation 3
  0.8988,                                 !- Year Escalation 4
  0.9289,                                 !- Year Escalation 5
  0.9604,                                 !- Year Escalation 6
  0.9897,                                 !- Year Escalation 7
  1.0075,                                 !- Year Escalation 8
  1.0314,                                 !- Year Escalation 9
  1.0554,                                 !- Year Escalation 10
  1.0861,                                 !- Year Escalation 11
  1.1278,                                 !- Year Escalation 12
  1.1497,                                 !- Year Escalation 13
  1.1620,                                 !- Year Escalation 14
  1.1743,                                 !- Year Escalation 15
  1.1852,                                 !- Year Escalation 16
  1.1948,                                 !- Year Escalation 17
  1.2037,                                 !- Year Escalation 18
  1.2071,                                 !- Year Escalation 19
  1.2119,                                 !- Year Escalation 20
  1.2139,                                 !- Year Escalation 21
  1.2194,                                 !- Year Escalation 22
  1.2276,                                 !- Year Escalation 23
  1.2365,                                 !- Year Escalation 24
  1.2420,                                 !- Year Escalation 25
  1.2461,                                 !- Year Escalation 26
  1.2509,                                 !- Year Escalation 27
  1.2550,                                 !- Year Escalation 28
  1.2591,                                 !- Year Escalation 29
  1.2638;                                 !- Year Escalation 30

LifeCycleCost:UsePriceEscalation,
  U.S. Avg  Commercial-Natural gas,       !- LCC Price Escalation Name
  NaturalGas,                             !- Resource
  2011,                                   !- Escalation Start Year
  January,                                !- Escalation Start Month
  0.9823,                                 !- Year Escalation 1
  0.9557,                                 !- Year Escalation 2
  0.9279,                                 !- Year Escalation 3
  0.9257,                                 !- Year Escalation 4
  0.9346,                                 !- Year Escalation 5
  0.9412,                                 !- Year Escalation 6
  0.9512,                                 !- Year Escalation 7
  0.9645,                                 !- Year Escalation 8
  0.9856,                                 !- Year Escalation 9
  1.0067,                                 !- Year Escalation 10
  1.0222,                                 !- Year Escalation 11
  1.0410,                                 !- Year Escalation 12
  1.0610,                                 !- Year Escalation 13
  1.0787,                                 !- Year Escalation 14
  1.0942,                                 !- Year Escalation 15
  1.1098,                                 !- Year Escalation 16
  1.1220,                                 !- Year Escalation 17
  1.1308,                                 !- Year Escalation 18
  1.1386,                                 !- Year Escalation 19
  1.1486,                                 !- Year Escalation 20
  1.1619,                                 !- Year Escalation 21
  1.1763,                                 !- Year Escalation 22
  1.1918,                                 !- Year Escalation 23
  1.2118,                                 !- Year Escalation 24
  1.2284,                                 !- Year Escalation 25
  1.2439,                                 !- Year Escalation 26
  1.2605,                                 !- Year Escalation 27
  1.2772,                                 !- Year Escalation 28
  1.2938,                                 !- Year Escalation 29
  1.3115;                                 !- Year Escalation 30

LifeCycleCost:UsePriceEscalation,
  U.S. Avg  Commercial-Coal,              !- LCC Price Escalation Name
  Coal,                                   !- Resource
  2011,                                   !- Escalation Start Year
  January,                                !- Escalation Start Month
  0.9970,                                 !- Year Escalation 1
  1.0089,                                 !- Year Escalation 2
  1.0089,                                 !- Year Escalation 3
  0.9941,                                 !- Year Escalation 4
  0.9941,                                 !- Year Escalation 5
  1.0000,                                 !- Year Escalation 6
  1.0030,                                 !- Year Escalation 7
  1.0059,                                 !- Year Escalation 8
  1.0089,                                 !- Year Escalation 9
  1.0119,                                 !- Year Escalation 10
  1.0148,                                 !- Year Escalation 11
  1.0178,                                 !- Year Escalation 12
  1.0208,                                 !- Year Escalation 13
  1.0267,                                 !- Year Escalation 14
  1.0297,                                 !- Year Escalation 15
  1.0356,                                 !- Year Escalation 16
  1.0415,                                 !- Year Escalation 17
  1.0534,                                 !- Year Escalation 18
  1.0564,                                 !- Year Escalation 19
  1.0593,                                 !- Year Escalation 20
  1.0653,                                 !- Year Escalation 21
  1.0712,                                 !- Year Escalation 22
  1.0742,                                 !- Year Escalation 23
  1.0801,                                 !- Year Escalation 24
  1.0831,                                 !- Year Escalation 25
  1.0831,                                 !- Year Escalation 26
  1.0861,                                 !- Year Escalation 27
  1.0890,                                 !- Year Escalation 28
  1.0920,                                 !- Year Escalation 29
  1.0950;                                 !- Year Escalation 30

Building,
  T shape,                                !- Name
  ,                                       !- North Axis {deg}
  ,                                       !- Terrain
  ,                                       !- Loads Convergence Tolerance Value
  ,                                       !- Temperature Convergence Tolerance Value {deltaC}
  ,                                       !- Solar Distribution
  ,                                       !- Maximum Number of Warmup Days
  ;                                       !- Minimum Number of Warmup Days

Shading:Building:Detailed,
  Box shape,                              !- Name
  ,                                       !- Transmittance Schedule Name
  ,                                       !- Number of Vertices
  -458.973, 128.0096, 0,                  !- X,Y,Z Vertex 1 {m}
  -219.5096, 128.0096, 0,                 !- X,Y,Z Vertex 2 {m}
  -219.5096, 128.0096, 516,               !- X,Y,Z Vertex 3 {m}
  -458.973, 128.0096, 516;                !- X,Y,Z Vertex 4 {m}

Shading:Building:Detailed,
  H shape,                                !- Name
  ,                                       !- Transmittance Schedule Name
  ,                                       !- Number of Vertices
  -460.6916, -111.9904, 0,                !- X,Y,Z Vertex 1 {m}
  -217.791, -111.9904, 0,                 !- X,Y,Z Vertex 2 {m}
  -217.791, -111.9904, 516,               !- X,Y,Z Vertex 3 {m}
  -460.6916, -111.9904, 516;              !- X,Y,Z Vertex 4 {m}

Shading:Building:Detailed,
  L shape,                                !- Name
  ,                                       !- Transmittance Schedule Name
  ,                                       !- Number of Vertices
  -194.025, 128.0096, 0,                  !- X,Y,Z Vertex 1 {m}
  20.4904, 128.0096, 0,                   !- X,Y,Z Vertex 2 {m}
  20.4904, 128.0096, 516,                 !- X,Y,Z Vertex 3 {m}
  -194.025, 128.0096, 516;                !- X,Y,Z Vertex 4 {m}

Shading:Building:Detailed,
  O shape,                                !- Name
  ,                                       !- Transmittance Schedule Name
  ,                                       !- Number of Vertices
  21.027, -351.9904, 0,                   !- X,Y,Z Vertex 1 {m}
  260.4904, -351.9904, 0,                 !- X,Y,Z Vertex 2 {m}
  260.4904, -351.9904, 516,               !- X,Y,Z Vertex 3 {m}
  21.027, -351.9904, 516;                 !- X,Y,Z Vertex 4 {m}

Shading:Building:Detailed,
  overhang-floor-1-space-1,               !- Name
  ,                                       !- Transmittance Schedule Name
  ,                                       !- Number of Vertices
  160.2289, 184.1677, 9.06,               !- X,Y,Z Vertex 1 {m}
  153.4289, 195.9456, 9.06,               !- X,Y,Z Vertex 2 {m}
  144.7686, 190.9456, 9.06,               !- X,Y,Z Vertex 3 {m}
  151.5686, 179.1677, 9.06;               !- X,Y,Z Vertex 4 {m}

Shading:Building:Detailed,
  overhang-floor-1-space-2,               !- Name
  ,                                       !- Transmittance Schedule Name
  ,                                       !- Number of Vertices
  172.3874, 202.8884, 9.06,               !- X,Y,Z Vertex 1 {m}
  226.2715, 233.9984, 9.06,               !- X,Y,Z Vertex 2 {m}
  221.2715, 242.6586, 9.06,               !- X,Y,Z Vertex 3 {m}
  167.3874, 211.5486, 9.06;               !- X,Y,Z Vertex 4 {m}

Shading:Building:Detailed,
  overhang-floor-1-space-3,               !- Name
  ,                                       !- Transmittance Schedule Name
  ,                                       !- Number of Vertices
  248.8756, 274.6269, 9.06,               !- X,Y,Z Vertex 1 {m}
  234.4256, 299.6551, 9.06,               !- X,Y,Z Vertex 2 {m}
  225.7654, 294.6551, 9.06,               !- X,Y,Z Vertex 3 {m}
  240.2154, 269.6269, 9.06;               !- X,Y,Z Vertex 4 {m}

Shading:Building:Detailed,
  overhang-floor-1-space-4,               !- Name
  ,                                       !- Transmittance Schedule Name
  ,                                       !- Number of Vertices
  187.9382, 300.3937, 9.06,               !- X,Y,Z Vertex 1 {m}
  134.0541, 269.2837, 9.06,               !- X,Y,Z Vertex 2 {m}
  139.0541, 260.6234, 9.06,               !- X,Y,Z Vertex 3 {m}
  192.9382, 291.7334, 9.06;               !- X,Y,Z Vertex 4 {m}

Shading:Building:Detailed,
  overhang-floor-1-space-5,               !- Name
  ,                                       !- Transmittance Schedule Name
  ,                                       !- Number of Vertices
  118.5622, 256.3364, 9.06,               !- X,Y,Z Vertex 1 {m}
  111.7622, 268.1144, 9.06,               !- X,Y,Z Vertex 2 {m}
  103.1019, 263.1144, 9.06,               !- X,Y,Z Vertex 3 {m}
  109.9019, 251.3364, 9.06;               !- X,Y,Z Vertex 4 {m}

Shading:Building:Detailed,
  overhang-floor-1-space-6,               !- Name
  ,                                       !- Transmittance Schedule Name
  ,                                       !- Number of Vertices
  75.5272, 266.2852, 9.06,                !- X,Y,Z Vertex 1 {m}
  35.335, 243.0802, 9.06,                 !- X,Y,Z Vertex 2 {m}
  40.335, 234.4199, 9.06,                 !- X,Y,Z Vertex 3 {m}
  80.5272, 257.6249, 9.06;                !- X,Y,Z Vertex 4 {m}

Shading:Building:Detailed,
  overhang-floor-1-space-7,               !- Name
  ,                                       !- Transmittance Schedule Name
  ,                                       !- Number of Vertices
  25.8417, 194.933, 9.06,                 !- X,Y,Z Vertex 1 {m}
  53.8917, 146.349, 9.06,                 !- X,Y,Z Vertex 2 {m}
  62.552, 151.349, 9.06,                  !- X,Y,Z Vertex 3 {m}
  34.502, 199.933, 9.06;                  !- X,Y,Z Vertex 4 {m}

Shading:Building:Detailed,
  overhang-floor-1-space-8,               !- Name
  ,                                       !- Transmittance Schedule Name
  ,                                       !- Number of Vertices
  100.335, 130.4969, 9.06,                !- X,Y,Z Vertex 1 {m}
  140.5272, 153.7019, 9.06,               !- X,Y,Z Vertex 2 {m}
  135.5272, 162.3621, 9.06,               !- X,Y,Z Vertex 3 {m}
  95.335, 139.1571, 9.06;                 !- X,Y,Z Vertex 4 {m}

Shading:Building:Detailed,
  overhang-floor-10-space-1,              !- Name
  ,                                       !- Transmittance Schedule Name
  ,                                       !- Number of Vertices
  160.2289, 184.1677, 513.06,             !- X,Y,Z Vertex 1 {m}
  153.4289, 195.9456, 513.06,             !- X,Y,Z Vertex 2 {m}
  144.7686, 190.9456, 513.06,             !- X,Y,Z Vertex 3 {m}
  151.5686, 179.1677, 513.06;             !- X,Y,Z Vertex 4 {m}

Shading:Building:Detailed,
  overhang-floor-10-space-2,              !- Name
  ,                                       !- Transmittance Schedule Name
  ,                                       !- Number of Vertices
  172.3874, 202.8884, 513.06,             !- X,Y,Z Vertex 1 {m}
  226.2715, 233.9984, 513.06,             !- X,Y,Z Vertex 2 {m}
  221.2715, 242.6586, 513.06,             !- X,Y,Z Vertex 3 {m}
  167.3874, 211.5486, 513.06;             !- X,Y,Z Vertex 4 {m}

Shading:Building:Detailed,
  overhang-floor-10-space-3,              !- Name
  ,                                       !- Transmittance Schedule Name
  ,                                       !- Number of Vertices
  248.8756, 274.6269, 513.06,             !- X,Y,Z Vertex 1 {m}
  234.4256, 299.6551, 513.06,             !- X,Y,Z Vertex 2 {m}
  225.7654, 294.6551, 513.06,             !- X,Y,Z Vertex 3 {m}
  240.2154, 269.6269, 513.06;             !- X,Y,Z Vertex 4 {m}

Shading:Building:Detailed,
  overhang-floor-10-space-4,              !- Name
  ,                                       !- Transmittance Schedule Name
  ,                                       !- Number of Vertices
  187.9382, 300.3937, 513.06,             !- X,Y,Z Vertex 1 {m}
  134.0541, 269.2837, 513.06,             !- X,Y,Z Vertex 2 {m}
  139.0541, 260.6234, 513.06,             !- X,Y,Z Vertex 3 {m}
  192.9382, 291.7334, 513.06;             !- X,Y,Z Vertex 4 {m}

Shading:Building:Detailed,
  overhang-floor-10-space-5,              !- Name
  ,                                       !- Transmittance Schedule Name
  ,                                       !- Number of Vertices
  118.5622, 256.3364, 513.06,             !- X,Y,Z Vertex 1 {m}
  111.7622, 268.1144, 513.06,             !- X,Y,Z Vertex 2 {m}
  103.1019, 263.1144, 513.06,             !- X,Y,Z Vertex 3 {m}
  109.9019, 251.3364, 513.06;             !- X,Y,Z Vertex 4 {m}

Shading:Building:Detailed,
  overhang-floor-10-space-6,              !- Name
  ,                                       !- Transmittance Schedule Name
  ,                                       !- Number of Vertices
  75.5272, 266.2852, 513.06,              !- X,Y,Z Vertex 1 {m}
  35.335, 243.0802, 513.06,               !- X,Y,Z Vertex 2 {m}
  40.335, 234.4199, 513.06,               !- X,Y,Z Vertex 3 {m}
  80.5272, 257.6249, 513.06;              !- X,Y,Z Vertex 4 {m}

Shading:Building:Detailed,
  overhang-floor-10-space-7,              !- Name
  ,                                       !- Transmittance Schedule Name
  ,                                       !- Number of Vertices
  25.8417, 194.933, 513.06,               !- X,Y,Z Vertex 1 {m}
  53.8917, 146.349, 513.06,               !- X,Y,Z Vertex 2 {m}
  62.552, 151.349, 513.06,                !- X,Y,Z Vertex 3 {m}
  34.502, 199.933, 513.06;                !- X,Y,Z Vertex 4 {m}

Shading:Building:Detailed,
  overhang-floor-10-space-8,              !- Name
  ,                                       !- Transmittance Schedule Name
  ,                                       !- Number of Vertices
  100.335, 130.4969, 513.06,              !- X,Y,Z Vertex 1 {m}
  140.5272, 153.7019, 513.06,             !- X,Y,Z Vertex 2 {m}
  135.5272, 162.3621, 513.06,             !- X,Y,Z Vertex 3 {m}
  95.335, 139.1571, 513.06;               !- X,Y,Z Vertex 4 {m}

Shading:Building:Detailed,
  overhang-floor-2-space-1,               !- Name
  ,                                       !- Transmittance Schedule Name
  ,                                       !- Number of Vertices
  160.2289, 184.1677, 65.06,              !- X,Y,Z Vertex 1 {m}
  153.4289, 195.9456, 65.06,              !- X,Y,Z Vertex 2 {m}
  144.7686, 190.9456, 65.06,              !- X,Y,Z Vertex 3 {m}
  151.5686, 179.1677, 65.06;              !- X,Y,Z Vertex 4 {m}

Shading:Building:Detailed,
  overhang-floor-2-space-2,               !- Name
  ,                                       !- Transmittance Schedule Name
  ,                                       !- Number of Vertices
  172.3874, 202.8884, 65.06,              !- X,Y,Z Vertex 1 {m}
  226.2715, 233.9984, 65.06,              !- X,Y,Z Vertex 2 {m}
  221.2715, 242.6586, 65.06,              !- X,Y,Z Vertex 3 {m}
  167.3874, 211.5486, 65.06;              !- X,Y,Z Vertex 4 {m}

Shading:Building:Detailed,
  overhang-floor-2-space-3,               !- Name
  ,                                       !- Transmittance Schedule Name
  ,                                       !- Number of Vertices
  248.8756, 274.6269, 65.06,              !- X,Y,Z Vertex 1 {m}
  234.4256, 299.6551, 65.06,              !- X,Y,Z Vertex 2 {m}
  225.7654, 294.6551, 65.06,              !- X,Y,Z Vertex 3 {m}
  240.2154, 269.6269, 65.06;              !- X,Y,Z Vertex 4 {m}

Shading:Building:Detailed,
  overhang-floor-2-space-4,               !- Name
  ,                                       !- Transmittance Schedule Name
  ,                                       !- Number of Vertices
  187.9382, 300.3937, 65.06,              !- X,Y,Z Vertex 1 {m}
  134.0541, 269.2837, 65.06,              !- X,Y,Z Vertex 2 {m}
  139.0541, 260.6234, 65.06,              !- X,Y,Z Vertex 3 {m}
  192.9382, 291.7334, 65.06;              !- X,Y,Z Vertex 4 {m}

Shading:Building:Detailed,
  overhang-floor-2-space-5,               !- Name
  ,                                       !- Transmittance Schedule Name
  ,                                       !- Number of Vertices
  118.5622, 256.3364, 65.06,              !- X,Y,Z Vertex 1 {m}
  111.7622, 268.1144, 65.06,              !- X,Y,Z Vertex 2 {m}
  103.1019, 263.1144, 65.06,              !- X,Y,Z Vertex 3 {m}
  109.9019, 251.3364, 65.06;              !- X,Y,Z Vertex 4 {m}

Shading:Building:Detailed,
  overhang-floor-2-space-6,               !- Name
  ,                                       !- Transmittance Schedule Name
  ,                                       !- Number of Vertices
  75.5272, 266.2852, 65.06,               !- X,Y,Z Vertex 1 {m}
  35.335, 243.0802, 65.06,                !- X,Y,Z Vertex 2 {m}
  40.335, 234.4199, 65.06,                !- X,Y,Z Vertex 3 {m}
  80.5272, 257.6249, 65.06;               !- X,Y,Z Vertex 4 {m}

Shading:Building:Detailed,
  overhang-floor-2-space-7,               !- Name
  ,                                       !- Transmittance Schedule Name
  ,                                       !- Number of Vertices
  25.8417, 194.933, 65.06,                !- X,Y,Z Vertex 1 {m}
  53.8917, 146.349, 65.06,                !- X,Y,Z Vertex 2 {m}
  62.552, 151.349, 65.06,                 !- X,Y,Z Vertex 3 {m}
  34.502, 199.933, 65.06;                 !- X,Y,Z Vertex 4 {m}

Shading:Building:Detailed,
  overhang-floor-2-space-8,               !- Name
  ,                                       !- Transmittance Schedule Name
  ,                                       !- Number of Vertices
  100.335, 130.4969, 65.06,               !- X,Y,Z Vertex 1 {m}
  140.5272, 153.7019, 65.06,              !- X,Y,Z Vertex 2 {m}
  135.5272, 162.3621, 65.06,              !- X,Y,Z Vertex 3 {m}
  95.335, 139.1571, 65.06;                !- X,Y,Z Vertex 4 {m}

Shading:Building:Detailed,
  overhang-floor-3-space-1,               !- Name
  ,                                       !- Transmittance Schedule Name
  ,                                       !- Number of Vertices
  160.2289, 184.1677, 121.06,             !- X,Y,Z Vertex 1 {m}
  153.4289, 195.9456, 121.06,             !- X,Y,Z Vertex 2 {m}
  144.7686, 190.9456, 121.06,             !- X,Y,Z Vertex 3 {m}
  151.5686, 179.1677, 121.06;             !- X,Y,Z Vertex 4 {m}

Shading:Building:Detailed,
  overhang-floor-3-space-2,               !- Name
  ,                                       !- Transmittance Schedule Name
  ,                                       !- Number of Vertices
  172.3874, 202.8884, 121.06,             !- X,Y,Z Vertex 1 {m}
  226.2715, 233.9984, 121.06,             !- X,Y,Z Vertex 2 {m}
  221.2715, 242.6586, 121.06,             !- X,Y,Z Vertex 3 {m}
  167.3874, 211.5486, 121.06;             !- X,Y,Z Vertex 4 {m}

Shading:Building:Detailed,
  overhang-floor-3-space-3,               !- Name
  ,                                       !- Transmittance Schedule Name
  ,                                       !- Number of Vertices
  248.8756, 274.6269, 121.06,             !- X,Y,Z Vertex 1 {m}
  234.4256, 299.6551, 121.06,             !- X,Y,Z Vertex 2 {m}
  225.7654, 294.6551, 121.06,             !- X,Y,Z Vertex 3 {m}
  240.2154, 269.6269, 121.06;             !- X,Y,Z Vertex 4 {m}

Shading:Building:Detailed,
  overhang-floor-3-space-4,               !- Name
  ,                                       !- Transmittance Schedule Name
  ,                                       !- Number of Vertices
  187.9382, 300.3937, 121.06,             !- X,Y,Z Vertex 1 {m}
  134.0541, 269.2837, 121.06,             !- X,Y,Z Vertex 2 {m}
  139.0541, 260.6234, 121.06,             !- X,Y,Z Vertex 3 {m}
  192.9382, 291.7334, 121.06;             !- X,Y,Z Vertex 4 {m}

Shading:Building:Detailed,
  overhang-floor-3-space-5,               !- Name
  ,                                       !- Transmittance Schedule Name
  ,                                       !- Number of Vertices
  118.5622, 256.3364, 121.06,             !- X,Y,Z Vertex 1 {m}
  111.7622, 268.1144, 121.06,             !- X,Y,Z Vertex 2 {m}
  103.1019, 263.1144, 121.06,             !- X,Y,Z Vertex 3 {m}
  109.9019, 251.3364, 121.06;             !- X,Y,Z Vertex 4 {m}

Shading:Building:Detailed,
  overhang-floor-3-space-6,               !- Name
  ,                                       !- Transmittance Schedule Name
  ,                                       !- Number of Vertices
  75.5272, 266.2852, 121.06,              !- X,Y,Z Vertex 1 {m}
  35.335, 243.0802, 121.06,               !- X,Y,Z Vertex 2 {m}
  40.335, 234.4199, 121.06,               !- X,Y,Z Vertex 3 {m}
  80.5272, 257.6249, 121.06;              !- X,Y,Z Vertex 4 {m}

Shading:Building:Detailed,
  overhang-floor-3-space-7,               !- Name
  ,                                       !- Transmittance Schedule Name
  ,                                       !- Number of Vertices
  25.8417, 194.933, 121.06,               !- X,Y,Z Vertex 1 {m}
  53.8917, 146.349, 121.06,               !- X,Y,Z Vertex 2 {m}
  62.552, 151.349, 121.06,                !- X,Y,Z Vertex 3 {m}
  34.502, 199.933, 121.06;                !- X,Y,Z Vertex 4 {m}

Shading:Building:Detailed,
  overhang-floor-3-space-8,               !- Name
  ,                                       !- Transmittance Schedule Name
  ,                                       !- Number of Vertices
  100.335, 130.4969, 121.06,              !- X,Y,Z Vertex 1 {m}
  140.5272, 153.7019, 121.06,             !- X,Y,Z Vertex 2 {m}
  135.5272, 162.3621, 121.06,             !- X,Y,Z Vertex 3 {m}
  95.335, 139.1571, 121.06;               !- X,Y,Z Vertex 4 {m}

Shading:Building:Detailed,
  overhang-floor-4-space-1,               !- Name
  ,                                       !- Transmittance Schedule Name
  ,                                       !- Number of Vertices
  160.2289, 184.1677, 177.06,             !- X,Y,Z Vertex 1 {m}
  153.4289, 195.9456, 177.06,             !- X,Y,Z Vertex 2 {m}
  144.7686, 190.9456, 177.06,             !- X,Y,Z Vertex 3 {m}
  151.5686, 179.1677, 177.06;             !- X,Y,Z Vertex 4 {m}

Shading:Building:Detailed,