
OS:Version,
  {56a1e1d5-1fae-46d5-a87c-c6e6053b10af}, !- Handle
  2.3.0;                                  !- Version Identifier

OS:ThermalZone,
  {d26aac21-61d8-43be-bbfc-0e87761c76fd}, !- Handle
  Default,                                !- Name
  ,                                       !- Multiplier
  ,                                       !- Ceiling Height {m}
  ,                                       !- Volume {m3}
  ,                                       !- Floor Area {m2}
  ,                                       !- Zone Inside Convection Algorithm
  ,                                       !- Zone Outside Convection Algorithm
  ,                                       !- Zone Conditioning Equipment List Name
  {43ab8aef-dcd5-471b-a394-1be667a611c1}, !- Zone Air Inlet Port List
  {91bdc0a7-af18-4df9-bd4b-aebc5e48253e}, !- Zone Air Exhaust Port List
  {6be187a9-8ab5-4f66-84d4-9d556a42089f}, !- Zone Air Node Name
  ,                                       !- Zone Return Air Node Name
  ,                                       !- Primary Daylighting Control Name
  ,                                       !- Fraction of Zone Controlled by Primary Daylighting Control
  ,                                       !- Secondary Daylighting Control Name
  ,                                       !- Fraction of Zone Controlled by Secondary Daylighting Control
  ,                                       !- Illuminance Map Name
  ,                                       !- Group Rendering Name
  ,                                       !- Thermostat Name
  No;                                     !- Use Ideal Air Loads

OS:Node,
  {d32def7d-f888-4642-93d4-2613c1e03b73}, !- Handle
  {514e6200-c6c8-4b75-8883-64e92d903cbc}, !- Name
  {6be187a9-8ab5-4f66-84d4-9d556a42089f}, !- Inlet Port
  ;                                       !- Outlet Port

OS:Connection,
  {6be187a9-8ab5-4f66-84d4-9d556a42089f}, !- Handle
  {e7ba85c9-7674-4f07-b14d-26667f5c6a8e}, !- Name
  {d26aac21-61d8-43be-bbfc-0e87761c76fd}, !- Source Object
  11,                                     !- Outlet Port
  {d32def7d-f888-4642-93d4-2613c1e03b73}, !- Target Object
  2;                                      !- Inlet Port

OS:PortList,
  {43ab8aef-dcd5-471b-a394-1be667a611c1}, !- Handle
  {d9560b74-12d4-4269-9a23-8e4bc44fe751}, !- Name
  {d26aac21-61d8-43be-bbfc-0e87761c76fd}; !- HVAC Component

OS:PortList,
  {91bdc0a7-af18-4df9-bd4b-aebc5e48253e}, !- Handle
  {cd718f1b-28a9-4e3f-b7f8-cb8479312cb2}, !- Name
  {d26aac21-61d8-43be-bbfc-0e87761c76fd}; !- HVAC Component

OS:Sizing:Zone,
  {641dc5f6-23f0-4e8b-942f-c211e8a502bd}, !- Handle
  {d26aac21-61d8-43be-bbfc-0e87761c76fd}, !- Zone or ZoneList Name
  SupplyAirTemperature,                   !- Zone Cooling Design Supply Air Temperature Input Method
  14,                                     !- Zone Cooling Design Supply Air Temperature {C}
  11.11,                                  !- Zone Cooling Design Supply Air Temperature Difference {deltaC}
  SupplyAirTemperature,                   !- Zone Heating Design Supply Air Temperature Input Method
  40,                                     !- Zone Heating Design Supply Air Temperature {C}
  11.11,                                  !- Zone Heating Design Supply Air Temperature Difference {deltaC}
  0.0085,                                 !- Zone Cooling Design Supply Air Humidity Ratio {kg-H2O/kg-air}
  0.008,                                  !- Zone Heating Design Supply Air Humidity Ratio {kg-H2O/kg-air}
  ,                                       !- Zone Heating Sizing Factor
  ,                                       !- Zone Cooling Sizing Factor
  DesignDay,                              !- Cooling Design Air Flow Method
  ,                                       !- Cooling Design Air Flow Rate {m3/s}
  ,                                       !- Cooling Minimum Air Flow per Zone Floor Area {m3/s-m2}
  ,                                       !- Cooling Minimum Air Flow {m3/s}
  ,                                       !- Cooling Minimum Air Flow Fraction
  DesignDay,                              !- Heating Design Air Flow Method
  ,                                       !- Heating Design Air Flow Rate {m3/s}
  ,                                       !- Heating Maximum Air Flow per Zone Floor Area {m3/s-m2}
  ,                                       !- Heating Maximum Air Flow {m3/s}
  ,                                       !- Heating Maximum Air Flow Fraction
  ,                                       !- Design Zone Air Distribution Effectiveness in Cooling Mode
  ,                                       !- Design Zone Air Distribution Effectiveness in Heating Mode
  No,                                     !- Account for Dedicated Outdoor Air System
  NeutralSupplyAir,                       !- Dedicated Outdoor Air System Control Strategy
  autosize,                               !- Dedicated Outdoor Air Low Setpoint Temperature for Design {C}
  autosize;                               !- Dedicated Outdoor Air High Setpoint Temperature for Design {C}

OS:ZoneHVAC:EquipmentList,
  {3d666a17-cdb8-462c-aeb6-6d2fc9449493}, !- Handle
  {0aa5a66c-7231-43b2-b5f2-53e446d2a24c}, !- Name
  {d26aac21-61d8-43be-bbfc-0e87761c76fd}; !- Thermal Zone

OS:Facility,
  {b6b432e3-1f8e-4396-8f85-ca1c991232a4}; !- Handle

OS:Building,
  {bae95d5d-5f0b-436c-94e3-75dc7ab76685}, !- Handle
  bldg-1,                                 !- Name
  ,                                       !- Building Sector Type
  ,                                       !- North Axis {deg}
  ,                                       !- Nominal Floor to Floor Height {m}
  ,                                       !- Space Type Name
  ,                                       !- Default Construction Set Name
  ;                                       !- Default Schedule Set Name

OS:BuildingStory,
  {016d5527-31fe-4ca8-ae83-5c9d0405a2c9}, !- Handle
  Level 00,                               !- Name
  ,                                       !- Nominal Z Coordinate {m}
  ,                                       !- Nominal Floor to Floor Height {m}
  ,                                       !- Default Construction Set Name
  ,                                       !- Default Schedule Set Name
  ;                                       !- Group Rendering Name

OS:BuildingStory,
  {36ade3ec-f0e9-4295-855f-489ca5a0834e}, !- Handle
  Level B1,                               !- Name
  ,                                       !- Nominal Z Coordinate {m}
  ,                                       !- Nominal Floor to Floor Height {m}
  ,                                       !- Default Construction Set Name
  ,                                       !- Default Schedule Set Name
  ;                                       !- Group Rendering Name

OS:BuildingStory,
  {8be354b7-bc21-487f-88e3-77474cd87c18}, !- Handle
  Level 01,                               !- Name
  ,                                       !- Nominal Z Coordinate {m}
  ,                                       !- Nominal Floor to Floor Height {m}
  ,                                       !- Default Construction Set Name
  ,                                       !- Default Schedule Set Name
  ;                                       !- Group Rendering Name

OS:BuildingStory,
  {95eb2389-328d-42f4-b8bb-011e21396f2e}, !- Handle
  Level 02,                               !- Name
  ,                                       !- Nominal Z Coordinate {m}
  ,                                       !- Nominal Floor to Floor Height {m}
  ,                                       !- Default Construction Set Name
  ,                                       !- Default Schedule Set Name
  ;                                       !- Group Rendering Name

OS:BuildingStory,
  {1c924407-98c9-4791-bbb4-83d4a86fb09c}, !- Handle
  Level RF,                               !- Name
  ,                                       !- Nominal Z Coordinate {m}
  ,                                       !- Nominal Floor to Floor Height {m}
  ,                                       !- Default Construction Set Name
  ,                                       !- Default Schedule Set Name
  ;                                       !- Group Rendering Name

OS:Space,
  {4d2ed9ac-8783-4f00-9af0-c27cbc56df76}, !- Handle
  00_100 Riser_2,                         !- Name
  ,                                       !- Space Type Name
  ,                                       !- Default Construction Set Name
  ,                                       !- Default Schedule Set Name
  ,                                       !- Direction of Relative North {deg}
  ,                                       !- X Origin {m}
  ,                                       !- Y Origin {m}
  ,                                       !- Z Origin {m}
  {016d5527-31fe-4ca8-ae83-5c9d0405a2c9}, !- Building Story Name
  {d26aac21-61d8-43be-bbfc-0e87761c76fd}; !- Thermal Zone Name

OS:Space,
  {864f346a-0168-46ee-82b8-5e69d01dd43e}, !- Handle
  00_101 Switch_Room,                     !- Name
  ,                                       !- Space Type Name
  ,                                       !- Default Construction Set Name
  ,                                       !- Default Schedule Set Name
  ,                                       !- Direction of Relative North {deg}
  ,                                       !- X Origin {m}
  ,                                       !- Y Origin {m}
  ,                                       !- Z Origin {m}
  {016d5527-31fe-4ca8-ae83-5c9d0405a2c9}, !- Building Story Name
  {d26aac21-61d8-43be-bbfc-0e87761c76fd}; !- Thermal Zone Name

OS:Space,
  {f13b6f1f-c209-45bb-8f3b-83b9678c7ef4}, !- Handle
  00_102 Waste,                           !- Name
  ,                                       !- Space Type Name
  ,                                       !- Default Construction Set Name
  ,                                       !- Default Schedule Set Name
  ,                                       !- Direction of Relative North {deg}
  ,                                       !- X Origin {m}
  ,                                       !- Y Origin {m}
  ,                                       !- Z Origin {m}
  {016d5527-31fe-4ca8-ae83-5c9d0405a2c9}, !- Building Story Name
  {d26aac21-61d8-43be-bbfc-0e87761c76fd}; !- Thermal Zone Name

OS:Space,
  {5211f32c-c897-43fd-a315-d8c179443e52}, !- Handle
  00_103 Sub_Station,                     !- Name
  ,                                       !- Space Type Name
  ,                                       !- Default Construction Set Name
  ,                                       !- Default Schedule Set Name
  ,                                       !- Direction of Relative North {deg}
  ,                                       !- X Origin {m}
  ,                                       !- Y Origin {m}
  ,                                       !- Z Origin {m}
  {016d5527-31fe-4ca8-ae83-5c9d0405a2c9}, !- Building Story Name
  {d26aac21-61d8-43be-bbfc-0e87761c76fd}; !- Thermal Zone Name

OS:Space,
  {959faf42-d8e4-4a39-91d1-7b76be749143}, !- Handle
  00_104 Riser_3,                         !- Name
  ,                                       !- Space Type Name
  ,                                       !- Default Construction Set Name
  ,                                       !- Default Schedule Set Name
  ,                                       !- Direction of Relative North {deg}
  ,                                       !- X Origin {m}
  ,                                       !- Y Origin {m}
  ,                                       !- Z Origin {m}
  {016d5527-31fe-4ca8-ae83-5c9d0405a2c9}, !- Building Story Name
  {d26aac21-61d8-43be-bbfc-0e87761c76fd}; !- Thermal Zone Name

OS:Space,
  {81a4ef52-f8b2-420c-a405-9536aa5c795a}, !- Handle
  00_105 Riser_4,                         !- Name
  ,                                       !- Space Type Name
  ,                                       !- Default Construction Set Name
  ,                                       !- Default Schedule Set Name
  ,                                       !- Direction of Relative North {deg}
  ,                                       !- X Origin {m}
  ,                                       !- Y Origin {m}
  ,                                       !- Z Origin {m}
  {016d5527-31fe-4ca8-ae83-5c9d0405a2c9}, !- Building Story Name
  {d26aac21-61d8-43be-bbfc-0e87761c76fd}; !- Thermal Zone Name

OS:Space,
  {3c795f78-f1de-4e40-9e3b-4e64404f62ab}, !- Handle
  00_106 Lobby_Lift,                      !- Name
  ,                                       !- Space Type Name
  ,                                       !- Default Construction Set Name
  ,                                       !- Default Schedule Set Name
  ,                                       !- Direction of Relative North {deg}
  ,                                       !- X Origin {m}
  ,                                       !- Y Origin {m}
  ,                                       !- Z Origin {m}
  {016d5527-31fe-4ca8-ae83-5c9d0405a2c9}, !- Building Story Name
  {d26aac21-61d8-43be-bbfc-0e87761c76fd}; !- Thermal Zone Name

OS:Space,
  {8f058457-530d-4f05-8139-818fde554e8c}, !- Handle
  00_107 Waste,                           !- Name
  ,                                       !- Space Type Name
  ,                                       !- Default Construction Set Name
  ,                                       !- Default Schedule Set Name
  ,                                       !- Direction of Relative North {deg}
  ,                                       !- X Origin {m}
  ,                                       !- Y Origin {m}
  ,                                       !- Z Origin {m}
  {016d5527-31fe-4ca8-ae83-5c9d0405a2c9}, !- Building Story Name
  {d26aac21-61d8-43be-bbfc-0e87761c76fd}; !- Thermal Zone Name

OS:Space,
  {09c01576-6dbd-4a6d-81fa-c3875289b5d2}, !- Handle
  00_108 Unit_1_Staircase,                !- Name
  ,                                       !- Space Type Name
  ,                                       !- Default Construction Set Name
  ,                                       !- Default Schedule Set Name
  ,                                       !- Direction of Relative North {deg}
  ,                                       !- X Origin {m}
  ,                                       !- Y Origin {m}
  ,                                       !- Z Origin {m}
  {016d5527-31fe-4ca8-ae83-5c9d0405a2c9}, !- Building Story Name
  {d26aac21-61d8-43be-bbfc-0e87761c76fd}; !- Thermal Zone Name

OS:Space,
  {5e015f39-de5a-4037-94fb-e706aa106fb6}, !- Handle
  00_109 Lobby,                           !- Name
  ,                                       !- Space Type Name
  ,                                       !- Default Construction Set Name
  ,                                       !- Default Schedule Set Name
  ,                                       !- Direction of Relative North {deg}
  ,                                       !- X Origin {m}
  ,                                       !- Y Origin {m}
  ,                                       !- Z Origin {m}
  {016d5527-31fe-4ca8-ae83-5c9d0405a2c9}, !- Building Story Name
  {d26aac21-61d8-43be-bbfc-0e87761c76fd}; !- Thermal Zone Name

OS:Space,
  {e54f3cc2-07a4-45e8-a5ce-8779221f75c4}, !- Handle
  00_110 Unit_4,                          !- Name
  ,                                       !- Space Type Name
  ,                                       !- Default Construction Set Name
  ,                                       !- Default Schedule Set Name
  ,                                       !- Direction of Relative North {deg}
  ,                                       !- X Origin {m}
  ,                                       !- Y Origin {m}
  ,                                       !- Z Origin {m}
  {016d5527-31fe-4ca8-ae83-5c9d0405a2c9}, !- Building Story Name
  {d26aac21-61d8-43be-bbfc-0e87761c76fd}; !- Thermal Zone Name

OS:Space,
  {42b239b0-1c2b-4f89-8f75-3890048473df}, !- Handle
  00_111 Unit_2_Goods_Lift,               !- Name
  ,                                       !- Space Type Name
  ,                                       !- Default Construction Set Name
  ,                                       !- Default Schedule Set Name
  ,                                       !- Direction of Relative North {deg}
  ,                                       !- X Origin {m}
  ,                                       !- Y Origin {m}
  ,                                       !- Z Origin {m}
  {016d5527-31fe-4ca8-ae83-5c9d0405a2c9}, !- Building Story Name
  {d26aac21-61d8-43be-bbfc-0e87761c76fd}; !- Thermal Zone Name

OS:Space,
  {802355a7-fde9-4fb9-8c4b-037e1aa0e84f}, !- Handle
  00_112 Unit_3,                          !- Name
  ,                                       !- Space Type Name
  ,                                       !- Default Construction Set Name
  ,                                       !- Default Schedule Set Name
  ,                                       !- Direction of Relative North {deg}
  ,                                       !- X Origin {m}
  ,                                       !- Y Origin {m}
  ,                                       !- Z Origin {m}
  {016d5527-31fe-4ca8-ae83-5c9d0405a2c9}, !- Building Story Name
  {d26aac21-61d8-43be-bbfc-0e87761c76fd}; !- Thermal Zone Name

OS:Space,
  {79f6e7bf-0add-43d6-b293-3c6cecac1435}, !- Handle
  00_113 Unit_2,                          !- Name
  ,                                       !- Space Type Name
  ,                                       !- Default Construction Set Name
  ,                                       !- Default Schedule Set Name
  ,                                       !- Direction of Relative North {deg}
  ,                                       !- X Origin {m}
  ,                                       !- Y Origin {m}
  ,                                       !- Z Origin {m}
  {016d5527-31fe-4ca8-ae83-5c9d0405a2c9}, !- Building Story Name
  {d26aac21-61d8-43be-bbfc-0e87761c76fd}; !- Thermal Zone Name

OS:Space,
  {130e8b13-42c0-4c08-a630-e2d49379c273}, !- Handle
  00_114 Unit_1_Goods_Lift,               !- Name
  ,                                       !- Space Type Name
  ,                                       !- Default Construction Set Name
  ,                                       !- Default Schedule Set Name
  ,                                       !- Direction of Relative North {deg}
  ,                                       !- X Origin {m}
  ,                                       !- Y Origin {m}
  ,                                       !- Z Origin {m}
  {016d5527-31fe-4ca8-ae83-5c9d0405a2c9}, !- Building Story Name
  {d26aac21-61d8-43be-bbfc-0e87761c76fd}; !- Thermal Zone Name

OS:Space,
  {e21dab4b-135b-4a49-ae07-b48bf77176cb}, !- Handle
  00_115 Unit_1_BOH,                      !- Name
  ,                                       !- Space Type Name
  ,                                       !- Default Construction Set Name
  ,                                       !- Default Schedule Set Name
  ,                                       !- Direction of Relative North {deg}
  ,                                       !- X Origin {m}
  ,                                       !- Y Origin {m}
  ,                                       !- Z Origin {m}
  {016d5527-31fe-4ca8-ae83-5c9d0405a2c9}, !- Building Story Name
  {d26aac21-61d8-43be-bbfc-0e87761c76fd}; !- Thermal Zone Name

OS:Space,
  {64ae469b-1c80-4e52-9e04-2318b4d61b34}, !- Handle
  00_116 Unit_1_BOH,                      !- Name
  ,                                       !- Space Type Name
  ,                                       !- Default Construction Set Name
  ,                                       !- Default Schedule Set Name
  ,                                       !- Direction of Relative North {deg}
  ,                                       !- X Origin {m}
  ,                                       !- Y Origin {m}
  ,                                       !- Z Origin {m}
  {016d5527-31fe-4ca8-ae83-5c9d0405a2c9}, !- Building Story Name
  {d26aac21-61d8-43be-bbfc-0e87761c76fd}; !- Thermal Zone Name

OS:Space,
  {7d8561ac-bf59-4d60-a287-a0772466af59}, !- Handle
  00_117 Unit_7_and_8_Goods_Lift,         !- Name
  ,                                       !- Space Type Name
  ,                                       !- Default Construction Set Name
  ,                                       !- Default Schedule Set Name
  ,                                       !- Direction of Relative North {deg}
  ,                                       !- X Origin {m}
  ,                                       !- Y Origin {m}
  ,                                       !- Z Origin {m}
  {016d5527-31fe-4ca8-ae83-5c9d0405a2c9}, !- Building Story Name
  {d26aac21-61d8-43be-bbfc-0e87761c76fd}; !- Thermal Zone Name

OS:Space,
  {fc8d03ef-0b61-47bb-b38d-2fb6955e88bc}, !- Handle
  00_118 Unit_8,                          !- Name
  ,                                       !- Space Type Name
  ,                                       !- Default Construction Set Name
  ,                                       !- Default Schedule Set Name
  ,                                       !- Direction of Relative North {deg}
  ,                                       !- X Origin {m}
  ,                                       !- Y Origin {m}
  ,                                       !- Z Origin {m}
  {016d5527-31fe-4ca8-ae83-5c9d0405a2c9}, !- Building Story Name
  {d26aac21-61d8-43be-bbfc-0e87761c76fd}; !- Thermal Zone Name

OS:Space,
  {c186de2a-5f2f-4cde-9728-86d274f672dd}, !- Handle
  00_119 Unit_1,                          !- Name
  ,                                       !- Space Type Name
  ,                                       !- Default Construction Set Name
  ,                                       !- Default Schedule Set Name
  ,                                       !- Direction of Relative North {deg}
  ,                                       !- X Origin {m}
  ,                                       !- Y Origin {m}
  ,                                       !- Z Origin {m}
  {016d5527-31fe-4ca8-ae83-5c9d0405a2c9}, !- Building Story Name
  {d26aac21-61d8-43be-bbfc-0e87761c76fd}; !- Thermal Zone Name

OS:Space,
  {4d1d7ac3-3956-49b7-8ff7-b827a37b09bb}, !- Handle
  00_120 Unit_7,                          !- Name
  ,                                       !- Space Type Name
  ,                                       !- Default Construction Set Name
  ,                                       !- Default Schedule Set Name
  ,                                       !- Direction of Relative North {deg}
  ,                                       !- X Origin {m}
  ,                                       !- Y Origin {m}
  ,                                       !- Z Origin {m}
  {016d5527-31fe-4ca8-ae83-5c9d0405a2c9}, !- Building Story Name
  {d26aac21-61d8-43be-bbfc-0e87761c76fd}; !- Thermal Zone Name

OS:Space,
  {a58f4a9d-8051-4679-bbc1-3a9f50d31782}, !- Handle
  00_121 Unit_6_Goods_Lift,               !- Name
  ,                                       !- Space Type Name
  ,                                       !- Default Construction Set Name
  ,                                       !- Default Schedule Set Name
  ,                                       !- Direction of Relative North {deg}
  ,                                       !- X Origin {m}
  ,                                       !- Y Origin {m}
  ,                                       !- Z Origin {m}
  {016d5527-31fe-4ca8-ae83-5c9d0405a2c9}, !- Building Story Name
  {d26aac21-61d8-43be-bbfc-0e87761c76fd}; !- Thermal Zone Name

OS:Space,
  {02b714f0-0b27-4875-b776-df22f3889bf1}, !- Handle
  00_122 Unit_6,                          !- Name
  ,                                       !- Space Type Name
  ,                                       !- Default Construction Set Name
  ,                                       !- Default Schedule Set Name
  ,                                       !- Direction of Relative North {deg}
  ,                                       !- X Origin {m}
  ,                                       !- Y Origin {m}
  ,                                       !- Z Origin {m}
  {016d5527-31fe-4ca8-ae83-5c9d0405a2c9}, !- Building Story Name
  {d26aac21-61d8-43be-bbfc-0e87761c76fd}; !- Thermal Zone Name

OS:Space,
  {4dd3a292-8452-4d34-b8c8-418c2726f813}, !- Handle
  00_123 Unit_5,                          !- Name
  ,                                       !- Space Type Name
  ,                                       !- Default Construction Set Name
  ,                                       !- Default Schedule Set Name
  ,                                       !- Direction of Relative North {deg}
  ,                                       !- X Origin {m}
  ,                                       !- Y Origin {m}
  ,                                       !- Z Origin {m}
  {016d5527-31fe-4ca8-ae83-5c9d0405a2c9}, !- Building Story Name
  {d26aac21-61d8-43be-bbfc-0e87761c76fd}; !- Thermal Zone Name

OS:Space,
  {67e9b39a-5630-4fba-9624-806d670d5537}, !- Handle
  00_124 Unit_5_Goods_Lift,               !- Name
  ,                                       !- Space Type Name
  ,                                       !- Default Construction Set Name
  ,                                       !- Default Schedule Set Name
  ,                                       !- Direction of Relative North {deg}
  ,                                       !- X Origin {m}
  ,                                       !- Y Origin {m}
  ,                                       !- Z Origin {m}
  {016d5527-31fe-4ca8-ae83-5c9d0405a2c9}, !- Building Story Name
  {d26aac21-61d8-43be-bbfc-0e87761c76fd}; !- Thermal Zone Name

OS:Space,
  {59e5a1d0-5691-4cef-91d7-a4bd26ea21e0}, !- Handle
  00_125 Unit_7_Staircase,                !- Name
  ,                                       !- Space Type Name
  ,                                       !- Default Construction Set Name
  ,                                       !- Default Schedule Set Name
  ,                                       !- Direction of Relative North {deg}
  ,                                       !- X Origin {m}
  ,                                       !- Y Origin {m}
  ,                                       !- Z Origin {m}
  {016d5527-31fe-4ca8-ae83-5c9d0405a2c9}, !- Building Story Name
  {d26aac21-61d8-43be-bbfc-0e87761c76fd}; !- Thermal Zone Name

OS:Space,
  {d1db22fb-7c03-4d05-8c8f-a34988911d29}, !- Handle
  00_126 Unit_8_Staircase,                !- Name
  ,                                       !- Space Type Name
  ,                                       !- Default Construction Set Name
  ,                                       !- Default Schedule Set Name
  ,                                       !- Direction of Relative North {deg}
  ,                                       !- X Origin {m}
  ,                                       !- Y Origin {m}
  ,                                       !- Z Origin {m}
  {016d5527-31fe-4ca8-ae83-5c9d0405a2c9}, !- Building Story Name
  {d26aac21-61d8-43be-bbfc-0e87761c76fd}; !- Thermal Zone Name

OS:Space,
  {efa28573-08ee-46ab-8523-81a18c173078}, !- Handle
  00_127 Smoke_Extract_Riser,             !- Name
  ,                                       !- Space Type Name
  ,                                       !- Default Construction Set Name
  ,                                       !- Default Schedule Set Name
  ,                                       !- Direction of Relative North {deg}
  ,                                       !- X Origin {m}
  ,                                       !- Y Origin {m}
  ,                                       !- Z Origin {m}
  {016d5527-31fe-4ca8-ae83-5c9d0405a2c9}, !- Building Story Name
  {d26aac21-61d8-43be-bbfc-0e87761c76fd}; !- Thermal Zone Name

OS:Space,
  {e5c5da28-b54d-4d44-82ed-236618054d90}, !- Handle
  00_128 Lobby_Staircase,                 !- Name
  ,                                       !- Space Type Name
  ,                                       !- Default Construction Set Name
  ,                                       !- Default Schedule Set Name
  ,                                       !- Direction of Relative North {deg}
  ,                                       !- X Origin {m}
  ,                                       !- Y Origin {m}
  ,                                       !- Z Origin {m}
  {016d5527-31fe-4ca8-ae83-5c9d0405a2c9}, !- Building Story Name
  {d26aac21-61d8-43be-bbfc-0e87761c76fd}; !- Thermal Zone Name

OS:Space,
  {624b2863-0c04-475b-9053-722c8a33b970}, !- Handle
  00_129 Unit_1,                          !- Name
  ,                                       !- Space Type Name
  ,                                       !- Default Construction Set Name
  ,                                       !- Default Schedule Set Name
  ,                                       !- Direction of Relative North {deg}
  ,                                       !- X Origin {m}
  ,                                       !- Y Origin {m}
  ,                                       !- Z Origin {m}
  {016d5527-31fe-4ca8-ae83-5c9d0405a2c9}, !- Building Story Name
  {d26aac21-61d8-43be-bbfc-0e87761c76fd}; !- Thermal Zone Name

OS:Space,
  {3b39350c-eded-408c-b07c-e37e5f65d3eb}, !- Handle
  00_130 Unit_1,                          !- Name
  ,                                       !- Space Type Name
  ,                                       !- Default Construction Set Name
  ,                                       !- Default Schedule Set Name
  ,                                       !- Direction of Relative North {deg}
  ,                                       !- X Origin {m}
  ,                                       !- Y Origin {m}
  ,                                       !- Z Origin {m}
  {016d5527-31fe-4ca8-ae83-5c9d0405a2c9}, !- Building Story Name